&DYN
/ Description of a keyword
/ NOM : French name
/ NOM1 : English name
/ TYPE : STRING, INTEGER, REAL, LOGICAL
/ INDEX : Index of the keyword
/ TAILLE : Number of values (0 means between 1 and n)
/ (opt) SUBMIT : Chain for files
/ DEFAUT : Defaut value in French
/ DEFAUT1 : Defaut value in English
/ MNEMO : Name of the variable in the code
/ (opt) CONTROLE : min;max for the keyword value
/ (opt) CHOIX : List of possible values
/ (opt) CHOIX1 : CHOIX in french
/ (opt) APPARENCE : Defined how the keyword is filled
/   LIST, DYNLIST, TUPLE
/ RUBRIQUE : Classification of the keyword 3 level max
/ RUBRIQUE1 : RUBRIQUE but in English
/ (opt) COMPOSE : Used for fudaa
/ (opt) COMPORT : Used for fudaa
/ NIVEAU : Level of the keyword (Level 0 is a mandatory keyword)
/ AIDE : Help in French (LaTeX syntax)
/ AIDE1 : Help in English (LaTeX syntax)
/---SYSTEME-TELEMAC-------------------------------------------------------------
/
/ INDICES IN USE SO FAR:
/ INTEGER INDEX USED: 1-120 OUT OF 120
/ REAL INDEX USED: 1-96 OUT OF  96
/ LOGICAL INDEX USED: 1-66 OUT OF  66
/ STRING INDEX USED: 1-3,6-11,13-43,48-56,58-98,100-103 OUT OF  94
/
/-------------------------------------------------------------------------------
/
////////////////////////////////////////////////////////////////////////
/// 1-COMPUTATION ENVIRONMENT
////////////////////////////////////////////////////////////////////////
////////////////////////////////////////////////////////////////////////
///// 1.1-INITIALIZATION
////////////////////////////////////////////////////////////////////////
NOM = 'TITRE'
NOM1 = 'TITLE'
TYPE = STRING
INDEX = 1
TAILLE = 1
DEFAUT = ''
DEFAUT1 = ''
MNEMO = 'TITCAS'
RUBRIQUE =
'ENVIRONNEMENT DE CALCUL';'INITIALISATION';''
RUBRIQUE1 =
'COMPUTATION ENVIRONMENT';'INITIALIZATION';''
NIVEAU = 0
AIDE =
'Titre du cas etudie.'
AIDE1 =
'Title of the case being considered.'
/
NOM = 'CONDITIONS INITIALES'
NOM1 = 'INITIAL CONDITIONS'
TYPE = STRING
INDEX = 26
TAILLE = 1
DEFAUT = 'COTE NULLE'
DEFAUT1 = 'ZERO ELEVATION'
MNEMO = 'CDTINI'
CHOIX =
'COTE NULLE';
'COTE CONSTANTE';
'HAUTEUR NULLE';
'HAUTEUR CONSTANTE';
'SPECIAL';
'PARTICULIERES';
'PARTICULAR';
'ALTIMETRIE SATELLITE TPXO'
CHOIX1 =
'ZERO ELEVATION';
'CONSTANT ELEVATION';
'ZERO DEPTH';
'CONSTANT DEPTH';
'SPECIAL';
'PARTICULIERES';
'PARTICULAR';
'TPXO SATELLITE ALTIMETRY'
RUBRIQUE =
'ENVIRONNEMENT DE CALCUL';'INITIALISATION';''
RUBRIQUE1 =
'COMPUTATION ENVIRONMENT';'INITIALIZATION';''
NIVEAU = 0
AIDE =
'Permet de definir les conditions initiales sur
les hauteurs d''eau notamment.
Les valeurs possibles sont :
\begin{itemize}
\item COTE NULLE : Initialise la cote de surface libre a 0.
           Les hauteurs d''eau initiales sont alors retrouvees en
           faisant la difference entre les cotes de surface libre
           et du fond ;
\item COTE CONSTANTE : Initialise la cote de surface libre a la
valeur donnee par le mot-cle \telkey{COTE INITIALE}. Les hauteurs
d''eau initiales sont calculees comme precedemment ;
\item HAUTEUR NULLE : Initialise les hauteurs d''eau a 0 ;
\item HAUTEUR CONSTANTE : Initialise les hauteurs d''eau a la valeur
donnee par le mot-cle \telkey{HAUTEUR INITIALE} ;
\item ALTIMETRIE SATELLITE TPXO : Les conditions initiales sur la
hauteur d''eau et les vitesses sont etablies sur la base des donnees
           satellite TPXO dont les 8 premiers constistuents
ont ete extraites et
sauvees dans les fichiers
\telkey{BASE BINAIRE 1/2 DE DONNEES DE MAREE} ;
\item PARTICULIERES : Les conditions initiales sur la hauteur d''eau
doivent etre precisees dans le sous-programme \telkey{USER\_CONDIN\_H}.
\end{itemize}'
AIDE1 =
'Makes it possible to define the initial conditions of
the water depth.
The possible values are as follows:
\begin{itemize}
\item ZERO ELEVATION: Initializes the free surface elevation to 0.
The initial water depths are then found by computing the difference
between the free surface and the bottom,
\item CONSTANT ELEVATION: Initializes the water elevation to the value
given by the keyword \telkey{INITIAL ELEVATION}.
The initial water depths are computed as in the previous case,
\item ZERO DEPTH: Initializes the water depths to 0.
\item CONSTANT DEPTH: Initializes the water depths to the value given
by the keyword \telkey{INITIAL DEPTH},
\item TPXO SATELITE ALTIMETRY: The initial conditions on the free
surface and velocities are established from the satellite program
data given by the harmonic constants database coming from OSU
(e.g. TPXO) and stored in the \telkey{BINARY DATABASE 1/2 FOR TIDE},
\item SPECIAL or PARTICULAR: The initial conditions with the water depth
should be stated in the \telfile{USER\_CONDIN\_H} subroutine.
\end{itemize}'
/
NOM = 'COTE INITIALE'
NOM1 = 'INITIAL ELEVATION'
TYPE = REAL
INDEX = 33
TAILLE = 1
DEFAUT = 0.
DEFAUT1 = 0.
MNEMO = 'COTINI'
RUBRIQUE =
'ENVIRONNEMENT DE CALCUL';'INITIALISATION';''
RUBRIQUE1 =
'COMPUTATION ENVIRONMENT';'INITIALIZATION';''
NIVEAU = 0
AIDE =
'Valeur utilisee avec l''option :
\telkey{CONDITIONS INITIALES} : ''COTE CONSTANTE''.'
AIDE1 =
'Value to be used with the option:
\telkey{INITIAL CONDITIONS} : ''CONSTANT ELEVATION''.'
/
NOM = 'HAUTEUR INITIALE'
NOM1 = 'INITIAL DEPTH'
TYPE = REAL
INDEX = 34
TAILLE = 1
DEFAUT = 0.
DEFAUT1 = 0.
MNEMO = 'HAUTIN'
RUBRIQUE =
'ENVIRONNEMENT DE CALCUL';'INITIALISATION';''
RUBRIQUE1 =
'COMPUTATION ENVIRONMENT';'INITIALIZATION';''
NIVEAU = 0
AIDE =
'Valeur utilisee avec l''option :
\telkey{CONDITIONS INITIALES} : ''HAUTEUR CONSTANTE''.'
AIDE1 =
'Value to be used along with the option:
\telkey{INITIAL CONDITIONS} : ''CONSTANT DEPTH''.'
/
NOM = 'FORMAT DU FICHIER DE DONNEES BINAIRE 1'
NOM1 = 'BINARY DATA FILE 1 FORMAT'
TYPE = STRING
INDEX = 96
TAILLE = 1
DEFAUT = 'BIN'
DEFAUT1 = 'BIN'
MNEMO = 'T2D\_FILES(T2DBI1)\%FMT'
CHOIX =
'BIN';
'SERAFIN';
'SERAFIND';
'MED'
CHOIX1 =
'BIN';
'SERAFIN';
'SERAFIND';
'MED'
RUBRIQUE =
'ENVIRONNEMENT DE CALCUL';'INITIALISATION';''
RUBRIQUE1 =
'COMPUTATION ENVIRONMENT';'INITIALIZATION';''
NIVEAU = 2
AIDE =
'Format du \telkey{FICHIER DE DONNEES BINAIRE 1}.
Les valeurs possibles sont :
\begin{itemize}
\item BIN     : format binaire standard ;
\item SERAFIN : format standard simple precision pour \tel ;
\item SERAFIND: format standard double precision pour \tel ;
\item MED     : format MED double precision base sur HDF5.
\end{itemize}'
AIDE1 =
'Format of the \telkey{BINARY DATA FILE 1}.
Possible values are:
\begin{itemize}
\item BIN     : standard binary format,
\item SERAFIN : classical single precision format in \tel,
\item SERAFIND: classical double precision format in \tel,
\item MED     : MED double precision format based on HDF5.
\end{itemize}'
/
NOM = 'FICHIER DE DONNEES BINAIRE 1'
NOM1 = 'BINARY DATA FILE 1'
TYPE = STRING
INDEX = 17
TAILLE = 1
SUBMIT = 'T2DBI1-READ;T2DBI1;FACUL;BIN;LIT;SELAFIN'
DEFAUT = ''
DEFAUT1 = ''
MNEMO = 'T2D\_FILES(T2DBI1)\%NAME'
RUBRIQUE =
'ENVIRONNEMENT DE CALCUL';'INITIALISATION';''
RUBRIQUE1 =
'COMPUTATION ENVIRONMENT';'INITIALIZATION';''
NIVEAU = 1
AIDE =
'Fichier de donnees code en binaire mis a la disposition
de l''utilisateur.'
AIDE1 =
'Binary-coded data file available to the user.'
/
NOM = 'FORMAT DU FICHIER DE DONNEES BINAIRE 2'
NOM1 = 'BINARY DATA FILE 2 FORMAT'
TYPE = STRING
INDEX = 97
TAILLE = 1
DEFAUT = 'BIN'
DEFAUT1 = 'BIN'
MNEMO = 'T2D\_FILES(T2DBI2)\%FMT'
CHOIX =
'BIN';
'SERAFIN';
'SERAFIND';
'MED'
CHOIX1 =
'BIN';
'SERAFIN';
'SERAFIND';
'MED'
RUBRIQUE =
'ENVIRONNEMENT DE CALCUL';'INITIALISATION';''
RUBRIQUE1 =
'COMPUTATION ENVIRONMENT';'INITIALIZATION';''
NIVEAU = 2
AIDE =
'Format du \telkey{FICHIER DE DONNEES BINAIRE 2}.
Les valeurs possibles sont :
\begin{itemize}
\item BIN     : format binaire standard ;
\item SERAFIN : format standard simple precision pour \tel ;
\item SERAFIND: format standard double precision pour \tel ;
\item MED     : format MED double precision base sur HDF5.
\end{itemize}'
AIDE1 =
'Format of the \telkey{BINARY DATA FILE 2}.
Possible values are:
\begin{itemize}
\item BIN     : standard binary format,
\item SERAFIN : classical single precision format in \tel,
\item SERAFIND: classical double precision format in \tel,
\item MED     : MED double precision format based on HDF5.
\end{itemize}'
/
NOM = 'FICHIER DE DONNEES BINAIRE 2'
NOM1 = 'BINARY DATA FILE 2'
TYPE = STRING
INDEX = 18
TAILLE = 1
SUBMIT = 'T2DBI2-READ;T2DBI2;FACUL;BIN;LIT;PARAL'
DEFAUT = ''
DEFAUT1 = ''
MNEMO = 'T2D\_FILES(T2DBI2)\%NAME'
RUBRIQUE =
'ENVIRONNEMENT DE CALCUL';'INITIALISATION';''
RUBRIQUE1 =
'COMPUTATION ENVIRONMENT';'INITIALIZATION';''
NIVEAU = 1
AIDE =
'Fichier de donnees code en binaire mis a la disposition
de l''utilisateur.'
AIDE1 =
'Binary-coded data file available to the user.'
/
NOM = 'FICHIER DE DONNEES FORMATE 1'
NOM1 = 'FORMATTED DATA FILE 1'
TYPE = STRING
INDEX = 19
TAILLE = 1
SUBMIT = 'T2DFO1-READ;T2DFO1;FACUL;ASC;LIT;PARAL'
DEFAUT = ''
DEFAUT1 = ''
MNEMO = 'T2D\_FILES(T2DFO1)\%NAME'
RUBRIQUE =
'ENVIRONNEMENT DE CALCUL';'INITIALISATION';''
RUBRIQUE1 =
'COMPUTATION ENVIRONMENT';'INITIALIZATION';''
NIVEAU = 1
AIDE =
'Fichier de donnees formate mis a la disposition de
l''utilisateur.'
AIDE1 =
'Formatted data file available to the user.'
/
NOM = 'FICHIER DE DONNEES FORMATE 2'
NOM1 = 'FORMATTED DATA FILE 2'
TYPE = STRING
INDEX = 20
TAILLE = 1
SUBMIT = 'T2DFO2-READ;T2DFO2;FACUL;ASC;LIT;PARAL'
DEFAUT = ''
DEFAUT1 = ''
MNEMO = 'T2D\_FILES(T2DFO2)\%NAME'
RUBRIQUE =
'ENVIRONNEMENT DE CALCUL';'INITIALISATION';''
RUBRIQUE1 =
'COMPUTATION ENVIRONMENT';'INITIALIZATION';''
NIVEAU = 1
AIDE =
'Fichier de donnees formate mis a la disposition de
l''utilisateur.'
AIDE1 =
'Formatted data file available to the user.'
/
////////////////////////////////////////////////////////////////////////
/////// 1.1.1-INPUT FILES
////////////////////////////////////////////////////////////////////////
NOM = 'FORMAT DU FICHIER DE GEOMETRIE'
NOM1 = 'GEOMETRY FILE FORMAT'
TYPE = STRING
INDEX = 27
TAILLE = 1
DEFAUT = 'SERAFIN'
DEFAUT1 = 'SERAFIN'
MNEMO = 'T2D\_FILES(T2DGEO)\%FMT'
CHOIX =
'SERAFIN';
'SERAFIND';
'MED'
CHOIX1 =
'SERAFIN';
'SERAFIND';
'MED'
RUBRIQUE =
'ENVIRONNEMENT DE CALCUL';'INITIALISATION';'FICHIERS D ENTREE'
RUBRIQUE1 =
'COMPUTATION ENVIRONMENT';'INITIALIZATION';'INPUT FILES'
NIVEAU = 0
AIDE =
'Format du \telkey{FICHIER DE GEOMETRIE}.
Les valeurs possibles sont :
\begin{itemize}
\item SERAFIN : format standard simple precision pour \tel ;
\item SERAFIND: format standard double precision pour \tel ;
\item MED     : format MED double precision base sur HDF5.
\end{itemize}'
AIDE1 =
'Format of the \telkey{GEOMETRY FILE}.
Possible values are:
\begin{itemize}
\item SERAFIN : classical single precision format in \tel,
\item SERAFIND: classical double precision format in \tel,
\item MED     : MED double precision format based on HDF5.
\end{itemize}'
/
NOM = 'FICHIER DE GEOMETRIE'
NOM1 = 'GEOMETRY FILE'
TYPE = STRING
INDEX = 6
TAILLE = 1
SUBMIT = 'T2DGEO-READ;T2DGEO;OBLIG;BIN;LIT;SELAFIN-GEOM'
MNEMO = 'T2D\_FILES(T2DGEO)\%NAME'
RUBRIQUE =
'ENVIRONNEMENT DE CALCUL';'INITIALISATION';'FICHIERS D ENTREE'
RUBRIQUE1 =
'COMPUTATION ENVIRONMENT';'INITIALIZATION';'INPUT FILES'
NIVEAU = 0
AIDE =
'Nom du fichier contenant le maillage du calcul a realiser.'
AIDE1 =
'Name of the file containing the mesh. This file may also
contain the topography and the friction coefficients.'
/
NOM = 'FICHIER FORTRAN'
NOM1 = 'FORTRAN FILE'
TYPE = STRING
INDEX = 7
TAILLE = 1
SUBMIT = 'INUTILE;INUTILE;FACUL;ASC;LIT;FORTRAN'
DEFAUT = ''
DEFAUT1 = ''
MNEMO = 'NOMFOR'
APPARENCE =
'FILE_OR_FOLDER'
RUBRIQUE =
'ENVIRONNEMENT DE CALCUL';'INITIALISATION';'FICHIERS D ENTREE'
RUBRIQUE1 =
'COMPUTATION ENVIRONMENT';'INITIALIZATION';'INPUT FILES'
NIVEAU = 1
AIDE =
'Nom du fichier ou repertoire FORTRAN a soumettre, contenant les
sous-programmes specifiques au modele.'
AIDE1 =
'Name of the FORTRAN file or directory to be submitted,
including specific subroutines of the model.'
/
NOM = 'FICHIER DES FONDS'
NOM1 = 'BOTTOM TOPOGRAPHY FILE'
TYPE = STRING
INDEX = 15
TAILLE = 1
SUBMIT = 'T2DFON-READ;T2DFON;FACUL;ASC;LIT;PARAL'
DEFAUT = ''
DEFAUT1 = ''
MNEMO = 'T2D\_FILES(T2DFON)\%NAME'
RUBRIQUE =
'ENVIRONNEMENT DE CALCUL';'INITIALISATION';'FICHIERS D ENTREE'
RUBRIQUE1 =
'COMPUTATION ENVIRONMENT';'INITIALIZATION';'INPUT FILES'
NIVEAU = 1
AIDE =
'Nom du fichier eventuel contenant la bathymetrie associee au
maillage.
Si ce mot-cle est utilise; c''est cette bathymetrie qui sera utilisee
pour le calcul.'
AIDE1 =
'Name of the possible file containing the bathymetric data.
Where this keyword is used, these bathymetric data shall be used in
the computation.'
/
NOM = 'LISSAGES DU FOND'
NOM1 = 'BOTTOM SMOOTHINGS'
TYPE = INTEGER
INDEX = 31
TAILLE = 1
DEFAUT = 0
DEFAUT1 = 0
MNEMO = 'LISFON'
RUBRIQUE =
'ENVIRONNEMENT DE CALCUL';'INITIALISATION';'FICHIERS D ENTREE'
RUBRIQUE1 =
'COMPUTATION ENVIRONMENT';'INITIALIZATION';'INPUT FILES'
NIVEAU = 0
AIDE =
'Nombre de lissages effectues sur la topographie.
Chaque lissage, effectue a l''aide d''une matrice de masse,
est conservatif.
Utilise lorsque les donnees de bathymetrie donnent des resultats
trop irreguliers apres interpolation.'
AIDE1 =
'Number of smoothings on bottom topography.
Each smoothing is mass conservative.
to be used when interpolation of bathymetry on the mesh gives
very rough results.'
/
NOM = 'LISSAGES DU FOND APRES MODIFICATIONS UTILISATEUR'
NOM1 = 'BOTTOM SMOOTHINGS AFTER USER MODIFICATIONS'
TYPE = LOGICAL
INDEX = 60
TAILLE = 1
DEFAUT = OUI
DEFAUT1 = YES
MNEMO = 'LISFON\_AFTER'
RUBRIQUE =
'ENVIRONNEMENT DE CALCUL';'INITIALISATION';'FICHIERS D ENTREE'
RUBRIQUE1 =
'COMPUTATION ENVIRONMENT';'INITIALIZATION';'INPUT FILES'
NIVEAU = 0
AIDE =
'Indique si le nombre d eventuels lissages sur la topographie est
effectue apres (ou sinon avant) les modifications de topographie
apportees par l utilisateur.'
AIDE1 =
'Indicates if the number of potential smoothings on bottom topography
is done after (or before otherwise) the topography modifications
implemented by the user.'
/
NOM = 'FICHIER DES CONDITIONS AUX LIMITES'
NOM1 = 'BOUNDARY CONDITIONS FILE'
TYPE = STRING
INDEX = 9
TAILLE = 1
SUBMIT = 'T2DLIM-READ;T2DCLI;OBLIG;ASC;LIT;CONLIM'
MNEMO = 'T2D\_FILES(T2DCLI)\%NAME'
RUBRIQUE =
'ENVIRONNEMENT DE CALCUL';'INITIALISATION';'FICHIERS D ENTREE'
RUBRIQUE1 =
'COMPUTATION ENVIRONMENT';'INITIALIZATION';'INPUT FILES'
NIVEAU = 0
AIDE =
'Nom du fichier contenant les types de conditions aux limites.
Ce fichier est rempli de facon automatique par le mailleur au moyen de
couleurs affectees aux noeuds des frontieres du domaine de calcul.'
AIDE1 =
'Name of the file containing the types of boundary conditions.
This file is filled automatically by the mesh generator through
through colours that are assigned to the boundary nodes.'
/
NOM = 'VALIDATION'
NOM1 = 'VALIDATION'
TYPE = LOGICAL
INDEX = 21
TAILLE = 1
DEFAUT = NON
DEFAUT1 = NO
MNEMO = 'VALID'
RUBRIQUE =
'ENVIRONNEMENT DE CALCUL';'INITIALISATION';'FICHIERS D ENTREE'
RUBRIQUE1 =
'COMPUTATION ENVIRONMENT';'INITIALIZATION';'INPUT FILES'
NIVEAU = 1
AIDE =
'Option utilisee principalement pour le dossier de validation. Le
\telkey{FICHIER DE REFERENCE} est alors considere comme une
reference a laquelle on va comparer le calcul. La comparaison est
effectuee par le sous-programme \telfile{BIEF\_VALIDA}
qui peut etre une comparaison avec une solution exacte par exemple.'
AIDE1 =
'This option is primarily used for the validation documents.
The \telkey{REFERENCE FILE} is then considered as a reference
which the computation is going to be compared with.
The comparison is done by the subroutine \telfile{BIEF\_VALIDA},
which can be modified so as to include, for example,
a comparison with an exact solution.'
/
NOM = 'FORMAT DU FICHIER DE REFERENCE'
NOM1 = 'REFERENCE FILE FORMAT'
TYPE = STRING
INDEX = 78
TAILLE = 1
DEFAUT = 'SERAFIN'
DEFAUT1 = 'SERAFIN'
MNEMO = 'T2D\_FILES(T2DREF)\%FMT'
CHOIX =
'SERAFIN';
'SERAFIND';
'MED'
CHOIX1 =
'SERAFIN';
'SERAFIND';
'MED'
RUBRIQUE =
'ENVIRONNEMENT DE CALCUL';'INITIALISATION';'FICHIERS D ENTREE'
RUBRIQUE1 =
'COMPUTATION ENVIRONMENT';'INITIALIZATION';'INPUT FILES'
NIVEAU = 1
AIDE =
'Format du \telkey{FICHIER DE REFERENCE}.
Les valeurs possibles sont :
\begin{itemize}
\item SERAFIN : format standard simple precision pour \tel ;
\item SERAFIND: format standard double precision pour \tel ;
\item MED     : format MED double precision base sur HDF5.
\end{itemize}'
AIDE1 =
'Format of the \telkey{REFERENCE FILE}.
Possible values are:
\begin{itemize}
\item SERAFIN : classical single precision format in \tel,
\item SERAFIND: classical double precision format in \tel,
\item MED     : MED double precision format based on HDF5.
\end{itemize}'
/
NOM = 'FICHIER DE REFERENCE'
NOM1 = 'REFERENCE FILE'
TYPE = STRING
INDEX = 37
TAILLE = 1
SUBMIT = 'T2DREF-READ;T2DREF;FACUL;BIN;LIT;SELAFIN'
DEFAUT = ''
DEFAUT1 = ''
MNEMO = 'T2D\_FILES(T2DREF)\%NAME'
RUBRIQUE =
'ENVIRONNEMENT DE CALCUL';'INITIALISATION';'FICHIERS D ENTREE'
RUBRIQUE1 =
'COMPUTATION ENVIRONMENT';'INITIALIZATION';'INPUT FILES'
NIVEAU = 1
AIDE =
'Fichier de resultats de reference pour la validation.'
AIDE1 =
'Binary-coded result file for validation.'
/
////////////////////////////////////////////////////////////////////////
/////// 1.1.2-GLOBAL
////////////////////////////////////////////////////////////////////////
NOM = 'PROCESSEURS PARALLELES'
NOM1 = 'PARALLEL PROCESSORS'
TYPE = INTEGER
INDEX = 49
TAILLE = 1
DEFAUT = 0
DEFAUT1 = 0
MNEMO = 'NCSIZE'
RUBRIQUE =
'ENVIRONNEMENT DE CALCUL';'INITIALISATION';'GLOBAL'
RUBRIQUE1 =
'COMPUTATION ENVIRONMENT';'INITIALIZATION';'GLOBAL'
NIVEAU = 1
AIDE =
'Nombre de processeurs pour la decomposition en parallele:
\begin{itemize}
\item 0 : 1 machine, compilation sans bibliotheque de parallelisme ;
\item 1 : 1 machine, compilation avec bibliotheque de parallelisme ;
\item 2 : 2 processeurs ou machines en parallele etc...
\end{itemize}'
AIDE1 =
'Number of processors for domain partition.
\begin{itemize}
\item 0: 1 machine, compiling without parallel library,
\item 1: 1 machine, compiling with a parallel library,
\item 2: 2 processors or machines in parallel etc...
\end{itemize}'
/
NOM = 'VERIFICATION DU MAILLAGE'
NOM1 = 'CHECKING THE MESH'
TYPE = LOGICAL
INDEX = 51
TAILLE = 1
DEFAUT = NON
DEFAUT1 = NO
MNEMO = 'CHECK\_MESH'
RUBRIQUE =
'ENVIRONNEMENT DE CALCUL';'INITIALISATION';'GLOBAL'
RUBRIQUE1 =
'COMPUTATION ENVIRONMENT';'INITIALIZATION';'GLOBAL'
NIVEAU = 0
AIDE =
'Si OUI on appelle le sous-programme \telfile{CHECKMESH} qui verifie
la coherence du maillage, points superposes, etc.'
AIDE1 =
'If this keyword is equal to YES, a call to subroutine
\telfile{CHECKMESH} will look for errors in the mesh,
superimposed points, etc.'
/
NOM = 'NOMBRE MAXIMUM DE FRONTIERES'
NOM1 = 'MAXIMUM NUMBER OF BOUNDARIES'
TYPE = INTEGER
INDEX = 95
TAILLE = 1
DEFAUT = 30
DEFAUT1 = 30
MNEMO = 'MAXFRO'
RUBRIQUE =
'ENVIRONNEMENT DE CALCUL';'INITIALISATION';'GLOBAL'
RUBRIQUE1 =
'COMPUTATION ENVIRONMENT';'INITIALIZATION';'GLOBAL'
NIVEAU = 1
AIDE =
'Nombre maximal de frontieres differentes dans le maillage.
Sert au dimensionnement de la memoire, a augmenter si necessaire.'
AIDE1 =
'Maximal number of boundaries in the mesh.
Used for dimensioning arrays. Can be increased if needed.'
/
NOM = 'NOMBRE MAXIMUM DE SOURCES'
NOM1 = 'MAXIMUM NUMBER OF SOURCES'
TYPE = INTEGER
INDEX = 96
TAILLE = 1
DEFAUT = 20
DEFAUT1 = 20
MNEMO = 'MAXSCE'
RUBRIQUE =
'ENVIRONNEMENT DE CALCUL';'INITIALISATION';'GLOBAL'
RUBRIQUE1 =
'COMPUTATION ENVIRONMENT';'INITIALIZATION';'GLOBAL'
NIVEAU = 1
AIDE =
'Nombre maximal de points sources dans le maillage.
Sert au dimensionnement de la memoire, a augmenter si necessaire.'
AIDE1 =
'Maximal number of punctual sources in the mesh.
Used for dimensioning arrays. Can be increased if needed.'
/
NOM = 'NOMBRE MAXIMUM DE TRACEURS'
NOM1 = 'MAXIMUM NUMBER OF TRACERS'
TYPE = INTEGER
INDEX = 97
TAILLE = 1
DEFAUT = 20
DEFAUT1 = 20
MNEMO = 'MAXTRA'
RUBRIQUE =
'ENVIRONNEMENT DE CALCUL';'INITIALISATION';'GLOBAL'
RUBRIQUE1 =
'COMPUTATION ENVIRONMENT';'INITIALIZATION';'GLOBAL'
NIVEAU = 1
AIDE =
'Nombre maximal de traceurs.
Sert au dimensionnement de la memoire, a augmenter si necessaire.'
AIDE1 =
'Maximal number of tracers.
Used for dimensioning arrays. Can be increased if needed.'
/
NOM = 'LONGUEUR DU VECTEUR'
NOM1 = 'VECTOR LENGTH'
TYPE = INTEGER
INDEX = 36
TAILLE = 1
DEFAUT = 1
DEFAUT1 = 1
MNEMO = 'LVMAC'
RUBRIQUE =
'ENVIRONNEMENT DE CALCUL';'INITIALISATION';'GLOBAL'
RUBRIQUE1 =
'COMPUTATION ENVIRONMENT';'INITIALIZATION';'GLOBAL'
NIVEAU = 3
AIDE =
'Longueur du vecteur pour les machines vectorielles.'
AIDE1 =
'Vector length on vector machines.'
/
NOM = 'COEFFICIENT DE SECURITE POUR SCARACT'
NOM1 = 'SECURITY COEFFICIENT FOR SCARACT'
TYPE = REAL
INDEX = 79
TAILLE = 1
DEFAUT = 1.
DEFAUT1 = 1.
MNEMO = 'SECU\_DROGUES'
RUBRIQUE =
'ENVIRONNEMENT DE CALCUL';'INITIALISATION';'GLOBAL'
RUBRIQUE1 =
'COMPUTATION ENVIRONMENT';'INITIALIZATION';'GLOBAL'
NIVEAU = 0
AIDE =
'Coefficient de securite pour l''allocation de memoire pour
\telfile{SCARACT}.'
AIDE1 =
'Security coefficient for memory allocation for \telfile{SCARACT}.'
/
////////////////////////////////////////////////////////////////////////
///// 1.2-RESTART
////////////////////////////////////////////////////////////////////////
NOM = 'SUITE DE CALCUL'
NOM1 = 'COMPUTATION CONTINUED'
TYPE = LOGICAL
INDEX = 1
TAILLE = 1
DEFAUT = NON
DEFAUT1 = NO
MNEMO = '.NOT.DEBU'
RUBRIQUE =
'ENVIRONNEMENT DE CALCUL';'REPRISE DE CALCUL';''
RUBRIQUE1 =
'COMPUTATION ENVIRONMENT';'RESTART';''
NIVEAU = 0
AIDE =
'Determine si le calcul en cours est independant de tout autre
resultat ou est une reprise effectuee a partir du resultat d''un calcul
precedent.
\begin{itemize}
\item NON : Il s''agit du premier passage pour ce calcul et il est
necessaire de definir un jeu complet de conditions initiales
\item OUI : Il s''agit d''une reprise de calcul :
les conditions initiales sont constituees par le dernier pas de
temps du \telkey{FICHIER DU CALCUL PRECEDENT} du fichier des parametres
utilise pour soumettre le calcul.
\end{itemize}
Par contre, l''ensemble des donnees du fichier des parametres
peuvent etre redefinies, ce qui offre la possibilite de changer
par exemple, le pas de temps, le modele de turbulence, le
frottement, d''ajouter ou retirer un traceur\ldots\\
De meme, il est necessaire de definir des conditions aux limites
(sous-programme \telfile{BORD} ou valeurs placees dans le fichier des
parametres), qui peuvent egalement etre modifiees.'
AIDE1 =
'Determines whether the computation under way is independent
result or is following an earlier result.
\begin{itemize}
\item NO: It is the first run for this computation and a whole set of
initial conditions should be defined,
\item YES: It follows a former computation:
the initial conditions consist in the last time step of the
\telkey{PREVIOUS COMPUTATION FILE} defined in the steering file
used for submitting the computation.
\end{itemize}
All the data from the steering file may be defined once again, which
provides an opportunity to change, for example, the time step,
the turbulence model, the friction, to add or remove a tracer\ldots\\
It is also possible to define new boundary conditions
(in the subroutine \telfile{BORD} or values defined
in the steering file).'
/
NOM = 'FORMAT DU FICHIER DU CALCUL PRECEDENT'
NOM1 = 'PREVIOUS COMPUTATION FILE FORMAT'
TYPE = STRING
INDEX = 29
TAILLE = 1
DEFAUT = 'SERAFIN'
DEFAUT1 = 'SERAFIN'
MNEMO = 'T2D\_FILES(T2DPRE)\%FMT'
CHOIX =
'SERAFIN';
'SERAFIND';
'MED'
CHOIX1 =
'SERAFIN';
'SERAFIND';
'MED'
RUBRIQUE =
'ENVIRONNEMENT DE CALCUL';'REPRISE DE CALCUL';''
RUBRIQUE1 =
'COMPUTATION ENVIRONMENT';'RESTART';''
NIVEAU = 0
AIDE =
'Format du \telkey{FICHIER DU CALCUL PRECEDENT}.
Les valeurs possibles sont :
\begin{itemize}
\item SERAFIN : format standard simple precision pour \tel ;
\item SERAFIND: format standard double precision pour \tel ;
\item MED     : format MED double precision base sur HDF5.
\end{itemize}'
AIDE1 =
'Format of the \telkey{PREVIOUS COMPUTATION FILE}.
Possible values are:
\begin{itemize}
\item SERAFIN : classical single precision format in \tel,
\item SERAFIND: classical double precision format in \tel,
\item MED     : MED double precision format based on HDF5.
\end{itemize}'
/
NOM = 'FICHIER DU CALCUL PRECEDENT'
NOM1 = 'PREVIOUS COMPUTATION FILE'
TYPE = STRING
INDEX = 10
TAILLE = 1
SUBMIT = 'T2DPRE-READ;T2DPRE;FACUL;BIN;LIT;SELAFIN'
DEFAUT = ''
DEFAUT1 = ''
MNEMO = 'T2D\_FILES(T2DPRE)\%NAME'
RUBRIQUE =
'ENVIRONNEMENT DE CALCUL';'REPRISE DE CALCUL';''
RUBRIQUE1 =
'COMPUTATION ENVIRONMENT';'RESTART';''
NIVEAU = 0
AIDE =
'Nom d''un fichier contenant les resultats d''un calcul precedent
realise sur le meme maillage et dont le dernier pas de temps enregistre
va fournir les conditions initiales pour une suite de calcul.'
AIDE1 =
'Name of a file containing the results of an earlier computation
which was made on the same mesh. The last recorded time step will
provide the initial conditions for the new computation.'
/
NOM = 'ENREGISTREMENT POUR SUITE DE CALCUL'
NOM1 = 'RECORD NUMBER FOR RESTART'
TYPE = INTEGER
INDEX = 39
TAILLE = 1
DEFAUT = -1
DEFAUT1 = -1
MNEMO = 'START\_RECORD'
RUBRIQUE =
'ENVIRONNEMENT DE CALCUL';'REPRISE DE CALCUL';''
RUBRIQUE1 =
'COMPUTATION ENVIRONMENT';'RESTART';''
NIVEAU = 0
AIDE =
'En cas de suite de calcul, numero de l enregistrement
de depart dans le fichier du calcul precedent. -1 signifie
que l on prend le dernier enregistrement.'
AIDE1 =
'In case of \telkey{COMPUTATION CONTINUED} = YES, record number
to start from in the \telkey{PREVIOUS COMPUTATION FILE}.
-1 means the last record is taken.'
/
NOM = 'REMISE A ZERO DU TEMPS'
NOM1 = 'INITIAL TIME SET TO ZERO'
TYPE = LOGICAL
INDEX = 30
TAILLE = 1
DEFAUT = NON
DEFAUT1 = NO
MNEMO = 'RAZTIM'
RUBRIQUE =
'ENVIRONNEMENT DE CALCUL';'REPRISE DE CALCUL';''
RUBRIQUE1 =
'COMPUTATION ENVIRONMENT';'RESTART';''
NIVEAU = 0
AIDE =
'Remet le temps a zero en cas de suite de calcul.'
AIDE1 =
'Initial time set to zero in case of restart.'
/
NOM = 'MODE SUITE'
NOM1 = 'RESTART MODE'
TYPE = LOGICAL
INDEX = 65
TAILLE = 1
DEFAUT = NON
DEFAUT1 = NO
MNEMO = 'RESTART\_MODE'
RUBRIQUE =
'ENVIRONNEMENT DE CALCUL';'REPRISE DE CALCUL';''
RUBRIQUE1 =
'COMPUTATION ENVIRONMENT';'RESTART';''
NIVEAU = 1
AIDE =
'Declenche le remplissage du
\telkey{FICHIER POUR SUITE}, qui permet une suite de calcul
parfaite, contrairement au \telkey{FICHIER DES RESULTATS}.'
AIDE1 =
'Triggers the filling of the \telkey{RESTART FILE},
which ensures a perfect restart of a computation,
unlike using the \telkey{RESULTS FILE}.'
/
NOM = 'FICHIER POUR SUITE'
NOM1 = 'RESTART FILE'
TYPE = STRING
INDEX = 42
TAILLE = 1
SUBMIT = 'T2DRST-WRITE;T2DRST;FACUL;BIN;ECR;SELAFIN'
DEFAUT = ''
DEFAUT1 = ''
MNEMO = 'T2D\_FILES(T2DRST)\%NAME'
RUBRIQUE =
'ENVIRONNEMENT DE CALCUL';'REPRISE DE CALCUL';''
RUBRIQUE1 =
'COMPUTATION ENVIRONMENT';'RESTART';''
NIVEAU = 1
AIDE =
'Nom du fichier dans lequel seront ecrits les resultats du
calcul pour obtenir une suite de calcul parfaite.
C est donc un fichier de sortie pour le calcul en cours,
qui servira de fichier d entree lors de la suite de calcul que l on
souhaite parfaite (le mot-cle \telkey{FICHIER DU CALCUL PRECEDENT}
est alors utilise).
Le \telkey{FORMAT DU FICHIER POUR SUITE} et le
\telkey{FORMAT DU FICHIER DU CALCUL PRECEDENT} doivent alors etre mis a
 ''SERAFIND'' ou ''MED''.'
AIDE1 =
'Name of the file into which the computation results shall
be written in order to get a perfect continued computation.
It is then an output file for the current computation,
which will be used as an input file when a continued computation
is expected to be perfect (the keyword
\telkey{PREVIOUS COMPUTATION FILE} is then used).
The \telkey{RESTART FILE FORMAT} and the
\telkey{PREVIOUS COMPUTATION FILE FORMAT} have to be set with
 ''SERAFIND'' or ''MED''.'
/
NOM = 'FORMAT DU FICHIER POUR SUITE'
NOM1 = 'RESTART FILE FORMAT'
TYPE = STRING
INDEX = 43
TAILLE = 1
DEFAUT = 'SERAFIND'
DEFAUT1 = 'SERAFIND'
MNEMO = 'T2D\_FILES(T2DRST)\%FMT'
CHOIX =
'SERAFIN';
'SERAFIND';
'MED'
CHOIX1 =
'SERAFIN';
'SERAFIND';
'MED'
RUBRIQUE =
'ENVIRONNEMENT DE CALCUL';'REPRISE DE CALCUL';''
RUBRIQUE1 =
'COMPUTATION ENVIRONMENT';'RESTART';''
NIVEAU = 2
AIDE =
'Format du \telkey{FICHIER POUR SUITE}.
Les valeurs possibles sont :
\begin{itemize}
\item SERAFIN : format standard simple precision pour \tel ;
\item SERAFIND: format standard double precision pour \tel ;
\item MED     : format MED double precision base sur HDF5.
\end{itemize}
Seul les formats double precision assurent une suite parfaite.'
AIDE1 =
'Format of the \telkey{RESTART FILE}.
Possible choices are:
\begin{itemize}
\item SERAFIN : classical single precision format in \tel,
\item SERAFIND: classical double precision format in \tel,
\item MED     : MED double precision format based on HDF5.
\end{itemize}
Only double precision formats ensure a perfect restart.'
/
NOM = 'PERIODE POUR LES SORTIES DU FICHIER POUR SUITE'
NOM1 = 'RESTART FILE PRINTOUT PERIOD'
TYPE = INTEGER
INDEX = 109
TAILLE = 1
DEFAUT = 0
DEFAUT1 = 0
MNEMO = 'RSTPRD'
RUBRIQUE =
'ENVIRONNEMENT DE CALCUL';'REPRISE DE CALCUL';''
RUBRIQUE1 =
'COMPUTATION ENVIRONMENT';'RESTART';''
NIVEAU = 2
AIDE =
'Determine la periode en nombre de pas de temps d''impression des
variables a sauver pour une reprise parfaite
dans le \telkey{FICHIER POUR SUITE}.
La valeur par defaut 0 signifie que le \telkey{FICHIER POUR SUITE}
est seulement ecrit au dernier pas de temps ou au
\telkey{NUMERO DE L''ENREGISTREMENT DANS LE FICHIER POUR SUITE}.'
AIDE1 =
'Determines, in number of time steps, the printout period for the
variables to be saved for a perfect restart in the
\telkey{RESTART FILE}.
Default = 0 means the \telkey{RESTART FILE} is only written at the last
time step or at the \telkey{RECORD NUMBER IN RESTART FILE}.'
/
NOM = 'NUMERO DE L''ENREGISTREMENT DANS LE FICHIER POUR SUITE'
NOM1 = 'RECORD NUMBER IN RESTART FILE'
TYPE = INTEGER
INDEX = 110
TAILLE = 1
DEFAUT = -1
DEFAUT1 = -1
MNEMO = 'RESTART\_RECORD'
RUBRIQUE =
'ENVIRONNEMENT DE CALCUL';'REPRISE DE CALCUL';''
RUBRIQUE1 =
'COMPUTATION ENVIRONMENT';'RESTART';''
NIVEAU = 2
AIDE =
'Determine le numero de pas de temps d''impression des
variables a sauver pour une reprise parfaite
dans le \telkey{FICHIER POUR SUITE}.
La valeur par defaut -1 signifie que le \telkey{FICHIER POUR SUITE}
est seulement ecrit au dernier pas de temps et/ou periodiquement a la
periode \telkey{PERIODE POUR LES SORTIES DU FICHIER POUR SUITE}.'
AIDE1 =
'Determines the number of time step when printing the variables to be
saved for a perfect restart in the \telkey{RESTART FILE}.
Default = -1 means the \telkey{RESTART FILE} is only written at the last
time step and/or periodically at the period
\telkey{RESTART FILE PRINTOUT PERIOD}.'
/
NOM = 'UTILISE LES VALEURS MAXIMUM DU FICHIER DU CALCUL PRECEDENT'
NOM1 = 'USE MAXIMUM VALUES FROM PREVIOUS COMPUTATION FILE'
TYPE = LOGICAL
INDEX = 66
TAILLE = 1
DEFAUT = OUI
DEFAUT1 = YES
MNEMO = 'MAX\_PREV'
RUBRIQUE =
'ENVIRONNEMENT DE CALCUL';'REPRISE DE CALCUL';''
RUBRIQUE1 =
'COMPUTATION ENVIRONMENT';'RESTART';''
NIVEAU = 2
AIDE =
'Si OUI, calcule les valeurs maximum pour les variables MAXZ, TMXZ,
MAXV, TMXV a partir du \telkey{FICHIER DU CALCUL PRECEDENT} et du
calcul en cours.
Si NON, les variables sont seulement calculees a partir du calcul en
cours.'
AIDE1 =
'If YES, computes maximum values for variables MAXZ, TMXZ, MAXV, TMXV
from \telkey{PREVIOUS COMPUTATION FILE} and current computation.
If NO, the variables are only computed from current computation.'
/
////////////////////////////////////////////////////////////////////////
///// 1.3-OUTPUT FILES
////////////////////////////////////////////////////////////////////////
////////////////////////////////////////////////////////////////////////
/////// 1.3.1-RESULTS FILES
////////////////////////////////////////////////////////////////////////
NOM = 'NUMERO DU PREMIER PAS DE TEMPS POUR LES SORTIES GRAPHIQUES'
NOM1 = 'NUMBER OF FIRST TIME STEP FOR GRAPHIC PRINTOUTS'
TYPE = INTEGER
INDEX = 22
TAILLE = 1
DEFAUT = 0
DEFAUT1 = 0
MNEMO = 'PTINIG'
RUBRIQUE =
'ENVIRONNEMENT DE CALCUL';'FICHIERS DE SORTIE';'FICHIERS RESULTATS'
RUBRIQUE1 =
'COMPUTATION ENVIRONMENT';'OUTPUT FILES';'RESULTS FILES'
NIVEAU = 0
AIDE =
'Determine le nombre de pas de temps a partir duquel debute
l''ecriture des resultats dans le \telkey{FICHIER DES RESULTATS}.'
AIDE1 =
'Determines the number of time steps after which the results
are first written into the \telkey{RESULTS FILE}.'
/
NOM = 'PERIODE POUR LES SORTIES GRAPHIQUES'
NOM1 = 'GRAPHIC PRINTOUT PERIOD'
TYPE = INTEGER
INDEX = 1
TAILLE = 1
DEFAUT = 1
DEFAUT1 = 1
MNEMO = 'LEOPRD'
RUBRIQUE =
'ENVIRONNEMENT DE CALCUL';'FICHIERS DE SORTIE';'FICHIERS RESULTATS'
RUBRIQUE1 =
'COMPUTATION ENVIRONMENT';'OUTPUT FILES';'RESULTS FILES'
NIVEAU = 0
AIDE =
'Determine la periode en nombre de pas de temps d''impression des
\telkey{VARIABLES POUR LES SORTIES GRAPHIQUES}
(voir ce mot-cle) dans le \telkey{FICHIER DES RESULTATS}.'
AIDE1 =
'Determines, in number of time steps, the printout period for the
\telkey{VARIABLES FOR GRAPHIC PRINTOUTS}
in the \telkey{RESULTS FILE}.'
/
NOM = 'VARIABLES POUR LES SORTIES GRAPHIQUES'
NOM1 = 'VARIABLES FOR GRAPHIC PRINTOUTS'
TYPE = STRING
INDEX = 2
TAILLE = 1
DEFAUT = 'U;V;H;B'
DEFAUT1 = 'U;V;H;B'
MNEMO = 'VARDES'
CHOIX =
'U="vitesse suivant l axe des x (m/s)"';
'V="vitesse suivant l axe des y (m/s)"';
'C="celerite des ondes (m/s)"';
'H="hauteur d eau (m)"';
'S="cote de surface libre (m)"';
'B="cote du fond (m)"';
'F="nombre de Froude"';
'Q="debit scalaire du fluide (m2/s)"';
'Ti="traceur i etc."';
'T*="Tous les traceurs de 1 a 9."';
'T1*="Tous les traceurs 10 a 19."';
'K="energie turbulente du modele k-epsilon (J/kg)"';
'E="dissipation de l energie turbulente (W/kg)"';
'D="viscosite turbulente (m2/s)"';
'I="debit suivant l axe des x (m2/s)"';
'J="debit suivant l axe des y (m2/s)"';
'M="vitesse scalaire (m/s)"';
'X="vent suivant l axe des x (m/s)"';
'Y="vent suivant l axe des y (m/s)"';
'P="pression atmospherique (Pa)"';
'W="coefficient de frottement sur le fond"';
'A="derive en x (m)"';
'G="derive en y (m)"';
'L="nombre de Courant"';
'N="variable supplementaire N"';
'O="variable supplementaire O"';
'R="variable supplementaire R"';
'Z="variable supplementaire Z"';
'MAXZ="cote maximum (m)"';
'TMXZ="temps de la cote maximum (s)"';
'MAXV="vitesse maximum (m/s)"';
'TMXV="temps de la vitesse maximum (s)"';
'US="vitesse de frottement (m/s)"';
'G1="gradient 1, etc."';
'TAU_S="TAU_S"';
'1/R="1/R (1/m)"';
'OMEGA="OMEGA"';
'WDIST="distance au mur le plus proche (m)"';
'ZRL="niveau de reference pour Nestor (m)"'
CHOIX1 =
'U="velocity along x axis (m/s)"';
'V="velocity along y axis (m/s)"';
'C="wave celerity (m/s)"';
'H="water depth (m)"';
'S="free surface elevation (m)"';
'B="bottom elevation (m)"';
'F="Froude number"';
'Q="scalar flowrate of fluid (m2/s)"';
'Ti="tracer i etc."';
'T*="All the tracers 1 to 9."';
'T1*="All the tracers 10 to 19."';
'K="turbulent kinetic energy in k-epsilon model (J/kg)"';
'E="dissipation of turbulent energy (W/kg)"';
'D="turbulent viscosity (m2/s)"';
'I="flowrate along x axis (m2/s)"';
'J="flowrate along y axis (m2/s)"';
'M="scalar velocity (m/s)"';
'X="wind along x axis (m/s)"';
'Y="wind along y axis (m/s)"';
'P="air pressure (Pa)"';
'W="friction coefficient"';
'A="drift along x (m)"';
'G="drift along y (m)"';
'L="Courant number"';
'N="supplementary variable N"';
'O="supplementary variable O"';
'R="supplementary variable R"';
'Z="supplementary variable Z"';
'MAXZ="maximum elevation (m)"';
'TMXZ="time of maximum elevation (s)"';
'MAXV="maximum velocity (m/s)"';
'TMXV="time of maximum velocity (s)"';
'US="friction velocity (m/s)"';
'G1="gradient 1, etc."';
'TAU_S="TAU_S"';
'1/R="1/R (1/m)"';
'OMEGA="OMEGA"';
'WDIST="distance to the closest wall (m)"';
'ZRL="reference level for Nestor (m)"'
APPARENCE =
'DYNLIST'
RUBRIQUE =
'ENVIRONNEMENT DE CALCUL';'FICHIERS DE SORTIE';'FICHIERS RESULTATS'
RUBRIQUE1 =
'COMPUTATION ENVIRONMENT';'OUTPUT FILES';'RESULTS FILES'
COMPOSE = ','
NIVEAU = 0
AIDE =
'Noms des variables ecrites dans FICHIER DES RESULTATS.
Chaque variable est representee par une lettre (choix des
separateurs libre). Les possibilites sont :
\begin{itemize}
\item U : vitesse suivant $x$ (m/s) ;
\item V : vitesse suivant $y$ (m/s) ;
\item C : celerite des ondes (m/s) ;
\item H : hauteur d eau (m) ;
\item S : cote de surface libre (m) ;
\item B : cote du fond (m) ;
\item F : nombre de Froude ;
\item Q : debit scalaire du fluide (m$^2$/s) ;
\item Tn: traceur, avec n le numero du traceur ;
\item K : energie turbulente du modele $k-\epsilon$ (J/kg) ;
\item E : dissipation de l energie turbulente (W/kg) ;
\item D : viscosite turbulente (m$^2$/s) ;
\item I : debit suivant $x$ (m$^2$/s) ;
\item J : debit suivant $y$ (m$^2$/s) ;
\item M : vitesse scalaire (m/s) ;
\item X : vent suivant $x$ (m/s) ;
\item Y : vent suivant $y$ (m/s) ;
\item P : pression atmospherique (Pa) ;
\item W : coefficient de frottement sur le fond ;
\item A : derive en $x$ (m) ;
\item G : derive en $y$ (m) ;
\item L : nombre de Courant ;
\item MAXZ : cote maximum (m) ;
\item TMXZ : temps de la cote maximum (s) ;
\item MAXV : vitesse maximum (m/s) ;
\item TMXV : temps de la vitesse maximum (s) ;
\item US : vitesse de frottement (m/s) ;
\item Gn: gradient differencie, avec n le numero de reference du
gradient ;
\item TAU\_S : TAU\_S ;
\item 1/R : 1/R (1/m) ;
\item OMEGA : OMEGA ;
\item WDIST : distance au mur le plus proche (m) ;
\item ZRL : niveau de reference pour Nestor.
\end{itemize}
4 champs libres sont utilisables pour ecrire des variables creees
dans le fichier des resultats.
Ces variables doivent etre calculees dans le PRERES\_TELEMAC2D et leur
nom ecrit dans NOMVAR\_TELEMAC2D.
Ces 7 champs sont :
N, O, R, Z qui correspondent aux tableaux PRIVE(1,1) a PRIVE(1,4).
Contrairement aux variables precedentes, celles-ci sont conservees
dans tout le programme et peuvent donc etre reutilisees. Dans ce
dernier cas ne pas oublier de donner une taille suffisante au tableau
PRIVE.
Il est ainsi possible de limiter la taille des fichiers de resultats
pour de gros calculs.
Cependant, en cas de reprise de calcul, le code doit disposer dans le
fichier des resultats des informations necessaires a sa poursuite :
\begin{itemize}
\item vitesses U et V ;
\item hauteur d eau H ;
\item cote du fond B.
\end{itemize}
Toutefois, TELEMAC-2D peut recalculer certaines des variables a
partir d autres.'
AIDE1 =
'Names of variables which will be written in the results file. Each
variable is represented by a letter (free separators).
The possible choices are:
\begin{itemize}
\item U: velocity along $x$ axis (m/s),
\item V: velocity along $y$ axis (m/s),
\item C: wave celerity (m/s),
\item H: water depth (m),
\item S: free surface elevation (m),
\item B: bottom elevation (m),
\item F: Froude number,
\item Q: scalar flowrate of fluid (m$^2$/s),
\item Tn: tracer, with n the tracer number,
\item K: turbulent kinetic energy in $k-\epsilon$ model (J/kg),
\item E: dissipation of turbulent energy (W/kg),
\item D: turbulent viscosity (m$^2$/s),
\item I: flowrate along $x$ axis (m$^2$/s),
\item J: flowrate along $y$ axis (m$^2$/s),
\item M: scalar velocity (m/s),
\item X: wind along $x$ axis (m/s),
\item Y: wind along $y$ axis (m/s),
\item P: air pressure (Pa),
\item W: friction coefficient,
\item A: drift along $x$ (m),
\item G: drift along $y$ (m),
\item L: Courant number,
\item MAXZ : maximum elevation (m),
\item TMXZ : time of maximum elevation (s),
\item MAXV : maximum velocity (m/s),
\item TMXV : time of maximum velocity (s),
\item US : friction velocity (m/s),
\item Gn: differentiated gradient, with n the gradient reference number,
\item TAU\_S : TAU\_S,
\item 1/R : 1/R (1/m),
\item OMEGA : OMEGA,
\item WDIST : distance to the closest wall (m),
\item ZRL : reference level for Nestor (m).
\end{itemize}
4 other variables are also available to the user
to write created variables results.
These user variables should be computed in
\telfile{PRERES\_TELEMAC2D} subroutine and their name
should be written in \telfile{NOMVAR\_TELEMAC2D} subroutine.
These seven variables are as follows:
N, O, R, Z which correspond to arrays \telfile{PRIVE(1,1)} up to
\telfile{PRIVE(1,4)}.
Unlike the previous variables, they are kept throughout the program,
so that they can be used again.
In the latter case, do not forget to provide the
array \telkey{PRIVE} with sufficiently large dimensions in
the FORTRAN FILE.
The size of the \telkey{RESULTS FILE} can be limited with this keyword.
However, if a computation must be continued, the
\telkey{RESULTS FILE} should contain the appropriate information
for running the code,i.e.:
\begin{itemize}
\item velocities $U$ and $V$,
\item water depth $H$,
\item bottom elevation $B$.
\end{itemize}
\telemac{2d} can compute some of these variables from others.'
/
NOM = 'NOMBRE DE TABLEAUX PRIVES'
NOM1 = 'NUMBER OF PRIVATE ARRAYS'
TYPE = INTEGER
INDEX = 54
TAILLE = 1
DEFAUT = 0
DEFAUT1 = 0
MNEMO = 'NPRIV'
RUBRIQUE =
'ENVIRONNEMENT DE CALCUL';'FICHIERS DE SORTIE';'FICHIERS RESULTATS'
RUBRIQUE1 =
'COMPUTATION ENVIRONMENT';'OUTPUT FILES';'RESULTS FILES'
NIVEAU = 0
AIDE =
'Nombre de tableaux mis a disposition de l utilisateur.'
AIDE1 =
'Number of arrays for own user programming.'
/
NOM = 'NOMS DES VARIABLES PRIVEES'
NOM1 = 'NAMES OF PRIVATE VARIABLES'
TYPE = STRING
INDEX = 98
TAILLE = 2
MNEMO = 'NAMES\_PRIVE'
APPARENCE =
'DYNLIST'
RUBRIQUE =
'ENVIRONNEMENT DE CALCUL';'FICHIERS DE SORTIE';'FICHIERS RESULTATS'
RUBRIQUE1 =
'COMPUTATION ENVIRONMENT';'OUTPUT FILES';'RESULTS FILES'
NIVEAU = 1
AIDE =
'Noms des variables privees en 32 caracteres, 16 pour le nom
16 pour l''unite. Elles correspondent au bloc \telfile{PRIVE}
et peuvent etre lues dans le \telkey{FICHIER DE GEOMETRIE} si elles
y sont presentes avec leur nom.'
AIDE1 =
'Name of private variables in 32 characters, 16 for the name,
16 for the unit.
They are stored in the block \telfile{PRIVE} and can be read
in the \telkey{GEOMETRY FILE} if they are here with their name.'
/
NOM = 'FORMAT DU FICHIER DES RESULTATS'
NOM1 = 'RESULTS FILE FORMAT'
TYPE = STRING
INDEX = 28
TAILLE = 1
DEFAUT = 'SERAFIN'
DEFAUT1 = 'SERAFIN'
MNEMO = 'T2D\_FILES(T2DRES)\%FMT'
CHOIX =
'SERAFIN';
'SERAFIND';
'MED'
CHOIX1 =
'SERAFIN';
'SERAFIND';
'MED'
RUBRIQUE =
'ENVIRONNEMENT DE CALCUL';'FICHIERS DE SORTIE';'FICHIERS RESULTATS'
RUBRIQUE1 =
'COMPUTATION ENVIRONMENT';'OUTPUT FILES';'RESULTS FILES'
NIVEAU = 0
AIDE =
'Format du \telkey{FICHIERS DE RESULTATS}.
Les valeurs possibles sont :
\begin{itemize}
\item SERAFIN : format standard simple precision pour \tel ;
\item SERAFIND: format standard double precision pour \tel ;
\item MED     : format MED double precision base sur HDF5.
\end{itemize}'
AIDE1 =
'Format of the \telkey{RESULTS FILE}. Possible choices are:
\begin{itemize}
\item SERAFIN : classical single precision format in \tel,
\item SERAFIND: classical double precision format in \tel,
\item MED     : MED double precision format based on HDF5.
\end{itemize}'
/
NOM = 'FICHIER DES RESULTATS'
NOM1 = 'RESULTS FILE'
TYPE = STRING
INDEX = 11
TAILLE = 1
SUBMIT = 'T2DRES-WRITE;T2DRES;OBLIG;BIN;ECR;SELAFIN'
DEFAUT = ''
DEFAUT1 = ''
MNEMO = 'T2D\_FILES(T2DRES)\%NAME'
RUBRIQUE =
'ENVIRONNEMENT DE CALCUL';'FICHIERS DE SORTIE';'FICHIERS RESULTATS'
RUBRIQUE1 =
'COMPUTATION ENVIRONMENT';'OUTPUT FILES';'RESULTS FILES'
NIVEAU = 0
AIDE =
'Nom du fichier dans lequel seront ecrits les resultats du
calcul avec la periodicite donnee par le mot cle \telkey{PERIODE POUR
LES SORTIES GRAPHIQUES}.'
AIDE1 =
'Name of the file into which the computation results
are written with a periodicity given by the keyword
\telkey{GRAPHIC PRINTOUT PERIOD}.'
/
NOM = 'FICHIER RESULTAT EN LONGITUDE-LATITUDE'
NOM1 = 'RESULT FILE IN LONGITUDE-LATITUDE'
TYPE = LOGICAL
INDEX = 56
TAILLE = 1
DEFAUT = OUI
DEFAUT1 = YES
MNEMO = 'KEEP\_LONLAT'
RUBRIQUE =
'ENVIRONNEMENT DE CALCUL';'FICHIERS DE SORTIE';'FICHIERS RESULTATS'
RUBRIQUE1 =
'COMPUTATION ENVIRONMENT';'OUTPUT FILES';'RESULTS FILES'
NIVEAU = 1
AIDE =
'Donne les coordonnees dans le fichier resultats en longitude-latitude
si le fichier geo est aussi donnee en longitude-latitude.'
AIDE1 =
'Gives the coordinates of the result file in longitude-latitude
if the geometry file is also given in longitude-latitude.'
/
NOM = 'FORMAT DU FICHIER DE RESULTATS BINAIRE'
NOM1 = 'BINARY RESULTS FILE FORMAT'
TYPE = STRING
INDEX = 95
TAILLE = 1
DEFAUT = 'BIN'
DEFAUT1 = 'BIN'
MNEMO = 'T2D\_FILES(T2DRBI)\%NAME'
CHOIX =
'BIN';
'SERAFIN';
'SERAFIND';
'MED'
CHOIX1 =
'BIN';
'SERAFIN';
'SERAFIND';
'MED'
RUBRIQUE =
'ENVIRONNEMENT DE CALCUL';'FICHIERS DE SORTIE';'FICHIERS RESULTATS'
RUBRIQUE1 =
'COMPUTATION ENVIRONMENT';'OUTPUT FILES';'RESULTS FILES'
NIVEAU = 2
AIDE =
'Format du \telkey{FICHIER DE RESULTATS BINAIRE}.
Les valeurs possibles sont :
\begin{itemize}
\item BIN     : format binaire standard ;
\item SERAFIN : format standard simple precision pour \tel ;
\item SERAFIND: format standard double precision pour \tel ;
\item MED     : format MED double precision base sur HDF5.
\end{itemize}'
AIDE1 =
'Format of the \telkey{BINARY RESULTS FILE}.
Possible values are:
\begin{itemize}
\item BIN     : standard binary format,
\item SERAFIN : classical single precision format in \tel,
\item SERAFIND: classical double precision format in \tel,
\item MED     : MED double precision format based on HDF5.
\end{itemize}'
/
NOM = 'FICHIER DE RESULTATS BINAIRE'
NOM1 = 'BINARY RESULTS FILE'
TYPE = STRING
INDEX = 24
TAILLE = 1
SUBMIT = 'T2DRBI-WRITE;T2DRBI;FACUL;BIN;ECR;PARAL'
DEFAUT = ''
DEFAUT1 = ''
MNEMO = 'T2D\_FILES(T2DRBI)\%NAME'
RUBRIQUE =
'ENVIRONNEMENT DE CALCUL';'FICHIERS DE SORTIE';'FICHIERS RESULTATS'
RUBRIQUE1 =
'COMPUTATION ENVIRONMENT';'OUTPUT FILES';'RESULTS FILES'
NIVEAU = 1
AIDE =
'Fichier de resultats code en binaire mis a la disposition
de l''utilisateur.'
AIDE1 =
'Additional binary-coded result file available to the user.'
/
NOM = 'FICHIER DE RESULTATS FORMATE'
NOM1 = 'FORMATTED RESULTS FILE'
TYPE = STRING
INDEX = 25
TAILLE = 1
SUBMIT = 'T2DRFO-WRITE;T2DRFO;FACUL;ASC;ECR;SCAL'
DEFAUT = ''
DEFAUT1 = ''
MNEMO = 'T2D\_FILES(T2DRFO)\%NAME'
RUBRIQUE =
'ENVIRONNEMENT DE CALCUL';'FICHIERS DE SORTIE';'FICHIERS RESULTATS'
RUBRIQUE1 =
'COMPUTATION ENVIRONMENT';'OUTPUT FILES';'RESULTS FILES'
NIVEAU = 1
AIDE =
'Fichier de resultats formate mis a la disposition de
l''utilisateur.'
AIDE1 =
'Formatted file of results available to the user.'
/
NOM = 'FICHIER DE RESULTATS FORMATE 1'
NOM1 = 'FORMATTED RESULTS FILE 1'
TYPE = STRING
INDEX = 14
TAILLE = 1
SUBMIT = 'T2DRF1-WRITE;T2DRF1;FACUL;ASC;ECR;SCAL'
DEFAUT = ''
DEFAUT1 = ''
MNEMO = 'T2D\_FILES(T2DRF1)\%NAME'
RUBRIQUE =
'ENVIRONNEMENT DE CALCUL';'FICHIERS DE SORTIE';'FICHIERS RESULTATS'
RUBRIQUE1 =
'COMPUTATION ENVIRONMENT';'OUTPUT FILES';'RESULTS FILES'
NIVEAU = 1
AIDE =
'Fichier de resultats formate 1 mis a la disposition de
l''utilisateur.'
AIDE1 =
'Formatted file of results 1 available to the user.'
/
NOM = 'FICHIER DE RESULTATS FORMATE 2'
NOM1 = 'FORMATTED RESULTS FILE 2'
TYPE = STRING
INDEX = 21
TAILLE = 1
SUBMIT = 'T2DRF2-WRITE;T2DRF2;FACUL;ASC;ECR;SCAL'
DEFAUT = ''
DEFAUT1 = ''
MNEMO = 'T2D\_FILES(T2DRF2)\%NAME'
RUBRIQUE =
'ENVIRONNEMENT DE CALCUL';'FICHIERS DE SORTIE';'FICHIERS RESULTATS'
RUBRIQUE1 =
'COMPUTATION ENVIRONMENT';'OUTPUT FILES';'RESULTS FILES'
NIVEAU = 1
AIDE =
'Fichier de resultats formate 2 mis a la disposition de
l''utilisateur.'
AIDE1 =
'Formatted file of results 2 available to the user.'
/
NOM = 'FICHIER DE RESULTATS FORMATE 3'
NOM1 = 'FORMATTED RESULTS FILE 3'
TYPE = STRING
INDEX = 22
TAILLE = 1
SUBMIT = 'T2DRF3-WRITE;T2DRF3;FACUL;ASC;ECR;SCAL'
DEFAUT = ''
DEFAUT1 = ''
MNEMO = 'T2D\_FILES(T2DRF3)\%NAME'
RUBRIQUE =
'ENVIRONNEMENT DE CALCUL';'FICHIERS DE SORTIE';'FICHIERS RESULTATS'
RUBRIQUE1 =
'COMPUTATION ENVIRONMENT';'OUTPUT FILES';'RESULTS FILES'
NIVEAU = 1
AIDE =
'Fichier de resultats formate 3 mis a la disposition de
l''utilisateur.'
AIDE1 =
'Formatted file of results 3 available to the user.'
/
NOM = 'FICHIER DE RESULTATS FORMATE 4'
NOM1 = 'FORMATTED RESULTS FILE 4'
TYPE = STRING
INDEX = 30
TAILLE = 1
SUBMIT = 'T2DRF4-WRITE;T2DRF4;FACUL;ASC;ECR;SCAL'
DEFAUT = ''
DEFAUT1 = ''
MNEMO = 'T2D\_FILES(T2DRF4)\%NAME'
RUBRIQUE =
'ENVIRONNEMENT DE CALCUL';'FICHIERS DE SORTIE';'FICHIERS RESULTATS'
RUBRIQUE1 =
'COMPUTATION ENVIRONMENT';'OUTPUT FILES';'RESULTS FILES'
NIVEAU = 1
AIDE =
'Fichier de resultats formate 4 mis a la disposition de
l''utilisateur.'
AIDE1 =
'Formatted file of results 4 available to the user.'
/
NOM = 'FICHIER DE RESULTATS FORMATE 5'
NOM1 = 'FORMATTED RESULTS FILE 5'
TYPE = STRING
INDEX = 31
TAILLE = 1
SUBMIT = 'T2DRF5-WRITE;T2DRF5;FACUL;ASC;ECR;SCAL'
DEFAUT = ''
DEFAUT1 = ''
MNEMO = 'T2D\_FILES(T2DRF5)\%NAME'
RUBRIQUE =
'ENVIRONNEMENT DE CALCUL';'FICHIERS DE SORTIE';'FICHIERS RESULTATS'
RUBRIQUE1 =
'COMPUTATION ENVIRONMENT';'OUTPUT FILES';'RESULTS FILES'
NIVEAU = 1
AIDE =
'Fichier de resultats formate 5 mis a la disposition de
l''utilisateur.'
AIDE1 =
'Formatted file of results 5 available to the user.'
/
NOM = 'FICHIER DE RESULTATS FORMATE 6'
NOM1 = 'FORMATTED RESULTS FILE 6'
TYPE = STRING
INDEX = 32
TAILLE = 1
SUBMIT = 'T2DRF6-WRITE;T2DRF6;FACUL;ASC;ECR;SCAL'
DEFAUT = ''
DEFAUT1 = ''
MNEMO = 'T2D\_FILES(T2DRF6)\%NAME'
RUBRIQUE =
'ENVIRONNEMENT DE CALCUL';'FICHIERS DE SORTIE';'FICHIERS RESULTATS'
RUBRIQUE1 =
'COMPUTATION ENVIRONMENT';'OUTPUT FILES';'RESULTS FILES'
NIVEAU = 1
AIDE =
'Fichier de resultats formate 6 mis a la disposition de
l''utilisateur.'
AIDE1 =
'Formatted file of results 6 available to the user.'
/
////////////////////////////////////////////////////////////////////////
/////// 1.3.2-CONTROL SECTION
////////////////////////////////////////////////////////////////////////
NOM = 'SECTIONS DE CONTROLE'
NOM1 = 'CONTROL SECTIONS'
TYPE = INTEGER
INDEX = 44
TAILLE = 2
MNEMO = 'CTRLSC'
APPARENCE =
'DYNLIST'
RUBRIQUE =
'ENVIRONNEMENT DE CALCUL';'FICHIERS DE SORTIE';'SECTION DE CONTROLE'
RUBRIQUE1 =
'COMPUTATION ENVIRONMENT';'OUTPUT FILES';'CONTROL SECTION'
NIVEAU = 1
AIDE =
'Couples de points (numeros globaux dans le maillage) entre
lesquels les debits instantanes et cumules seront donnes.'
AIDE1 =
'Couples of points (global numbers
in the mesh) defining sections
where the instantaneous and cumulated discharges will be given.'
/
NOM = 'IMPRESSION DU CUMUL DES FLUX'
NOM1 = 'PRINTING CUMULATED FLOWRATES'
TYPE = LOGICAL
INDEX = 39
TAILLE = 1
DEFAUT = NON
DEFAUT1 = NO
MNEMO = 'CUMFLO'
RUBRIQUE =
'ENVIRONNEMENT DE CALCUL';'FICHIERS DE SORTIE';'SECTION DE CONTROLE'
RUBRIQUE1 =
'COMPUTATION ENVIRONMENT';'OUTPUT FILES';'CONTROL SECTION'
NIVEAU = 0
AIDE =
'Impression du flux cumule a travers les sections de controle.'
AIDE1 =
'Printing the cumulated flowrates through control sections.'
/
NOM = 'CALCUL COMPATIBLE DES FLUX'
NOM1 = 'COMPATIBLE COMPUTATION OF FLUXES'
TYPE = LOGICAL
INDEX = 40
TAILLE = 1
DEFAUT = NON
DEFAUT1 = NO
MNEMO = 'COMFLU'
RUBRIQUE =
'ENVIRONNEMENT DE CALCUL';'FICHIERS DE SORTIE';'SECTION DE CONTROLE'
RUBRIQUE1 =
'COMPUTATION ENVIRONMENT';'OUTPUT FILES';'CONTROL SECTION'
NIVEAU = 0
AIDE =
'Flux a travers les sections de controle, calcul compatible
avec l''impermeabilite sous forme faible.'
AIDE1 =
'Flowrates through control sections, computation compatible
with the weak formulation of no-flux boundary condition.'
/
NOM = 'FICHIER DES SECTIONS DE CONTROLE'
NOM1 = 'SECTIONS INPUT FILE'
TYPE = STRING
INDEX = 79
TAILLE = 1
SUBMIT = 'NSCS-READ;T2DSEC;FACUL;ASC;LIT;SECTION'
DEFAUT = ''
DEFAUT1 = ''
MNEMO = 'T2D\_FILES\%ADR(T2DSEC)'
RUBRIQUE =
'ENVIRONNEMENT DE CALCUL';'FICHIERS DE SORTIE';'SECTION DE CONTROLE'
RUBRIQUE1 =
'COMPUTATION ENVIRONMENT';'OUTPUT FILES';'CONTROL SECTION'
NIVEAU = 1
AIDE =
'Fichier des sections de controle, partitione.'
AIDE1 =
'Sections input file, partitioned.'
/
NOM = 'FICHIER DE SORTIE DES SECTIONS DE CONTROLE'
NOM1 = 'SECTIONS OUTPUT FILE'
TYPE = STRING
INDEX = 80
TAILLE = 1
SUBMIT = 'NSEO-WRITE;T2DSEO;FACUL;ASC;ECR;SCAL'
DEFAUT = ''
DEFAUT1 = ''
MNEMO = 'T2D\_FILES\%ADR(T2DSEO)'
RUBRIQUE =
'ENVIRONNEMENT DE CALCUL';'FICHIERS DE SORTIE';'SECTION DE CONTROLE'
RUBRIQUE1 =
'COMPUTATION ENVIRONMENT';'OUTPUT FILES';'CONTROL SECTION'
NIVEAU = 1
AIDE =
'Fichier de sortie des sections de controle, ecrit par le maitre.'
AIDE1 =
'Sections output file, written by the master.'
/
NOM = 'FLUXLINE'
NOM1 = 'FLUXLINE'
TYPE = LOGICAL
INDEX = 52
TAILLE = 1
DEFAUT = NON
DEFAUT1 = NO
MNEMO = 'DOFLUX'
RUBRIQUE =
'ENVIRONNEMENT DE CALCUL';'FICHIERS DE SORTIE';'SECTION DE CONTROLE'
RUBRIQUE1 =
'COMPUTATION ENVIRONMENT';'OUTPUT FILES';'CONTROL SECTION'
NIVEAU = 1
AIDE =
'Utiliser fluxline pour le calcul des flux sur les lignes.'
AIDE1 =
'Use Fluxline to compute flux over lines.'
/
NOM = 'FICHIER DE FLUXLINE'
NOM1 = 'FLUXLINE INPUT FILE'
TYPE = STRING
INDEX = 102
TAILLE = 1
SUBMIT = 'T2DFLX-READ;T2DFLX;FACUL;ASC;LIT;PARAL'
DEFAUT = ''
DEFAUT1 = ''
MNEMO = 'T2D\_FILES(T2DFLX)\%NAME'
RUBRIQUE =
'ENVIRONNEMENT DE CALCUL';'FICHIERS DE SORTIE';'SECTION DE CONTROLE'
RUBRIQUE1 =
'COMPUTATION ENVIRONMENT';'OUTPUT FILES';'CONTROL SECTION'
NIVEAU = 1
AIDE =
'Nom du fichier de fluxline, avec des donnees sur les sections.'
AIDE1 =
'Name of the fluxline file, with data on cross-sections.'
/
////////////////////////////////////////////////////////////////////////
/////// 1.3.3-LISTING
////////////////////////////////////////////////////////////////////////
NOM = 'NUMERO DU PREMIER PAS DE TEMPS POUR LES SORTIES LISTING'
NOM1 = 'NUMBER OF FIRST TIME STEP FOR LISTING PRINTOUTS'
TYPE = INTEGER
INDEX = 23
TAILLE = 1
DEFAUT = 0
DEFAUT1 = 0
MNEMO = 'PTINIL'
RUBRIQUE =
'ENVIRONNEMENT DE CALCUL';'FICHIERS DE SORTIE';'LISTING'
RUBRIQUE1 =
'COMPUTATION ENVIRONMENT';'OUTPUT FILES';'LISTING'
NIVEAU = 2
AIDE =
'Determine le numero de pas de temps a partir duquel debute
l''ecriture des resultats dans le listing.'
AIDE1 =
'Determines the number of time steps after which the results
are first written into the listing.'
/
NOM = 'PERIODE DE SORTIE LISTING'
NOM1 = 'LISTING PRINTOUT PERIOD'
TYPE = INTEGER
INDEX = 2
TAILLE = 1
DEFAUT = 1
DEFAUT1 = 1
MNEMO = 'LISPRD'
RUBRIQUE =
'ENVIRONNEMENT DE CALCUL';'FICHIERS DE SORTIE';'LISTING'
RUBRIQUE1 =
'COMPUTATION ENVIRONMENT';'OUTPUT FILES';'LISTING'
NIVEAU = 0
AIDE =
'Determine la periode en nombre de pas de temps d''impression des
\telkey{VARIABLES A IMPRIMER} (voir ce mot-cle).
Pour la mise au point, il faut
savoir que la sortie des resultats est effectuee systematiquement sur le
listing (CAS.SORTIE sur station de travail).'
AIDE1 =
'Determines, in number of time steps, the printout period of the
\telkey{VARIABLES TO BE PRINTED}.
The results are systematically printed out on
the listing file (file CAS.SORTIE at the workstation).'
/
NOM = 'PERIODE POUR LES SORTIES LISTING'
NOM1 = 'LISTING FOR PRINTOUT PERIOD'
TYPE = INTEGER
INDEX = 64
TAILLE = 1
DEFAUT = 1
DEFAUT1 = 1
MNEMO = 'LISPRD'
RUBRIQUE =
'ENVIRONNEMENT DE CALCUL';'FICHIERS DE SORTIE';'LISTING'
RUBRIQUE1 =
'COMPUTATION ENVIRONMENT';'OUTPUT FILES';'LISTING'
NIVEAU = 1
AIDE =
'Determine la periode en nombre de pas de temps d''impression
des \telkey{VARIABLES A IMPRIMER} (voir ce mot-cle).
Pour la mise au point,
il faut savoir que la sortie des resultats est effectuee
systematiquement sur le listing
(CAS.SORTIE sur station de travail).
A la priorite sur \telkey{PERIODE DE SORTIE LISTING}.'
AIDE1 =
'Determines, in number of time steps, the printout period of
the \telkey{VARIABLES TO BE PRINTED}.
The results are systematically printed out on the listing file
(file CAS.SORTIE at the workstation),
Has priority before \telkey{LISTING PRINTOUT PERIOD}.'
/
NOM = 'SORTIE LISTING'
NOM1 = 'LISTING PRINTOUT'
TYPE = LOGICAL
INDEX = 3
TAILLE = 1
DEFAUT = OUI
DEFAUT1 = YES
MNEMO = 'LISTIN'
RUBRIQUE =
'ENVIRONNEMENT DE CALCUL';'FICHIERS DE SORTIE';'LISTING'
RUBRIQUE1 =
'COMPUTATION ENVIRONMENT';'OUTPUT FILES';'LISTING'
NIVEAU = 0
AIDE =
'Sortie des resultats sur support papier ou a l ecran.
Si l''on met NON le listing ne contient que l''entete et la mention
FIN NORMALE DU PROGRAMME.
Commande a eviter.'
AIDE1 =
'Result printout on hard copy.
When NO is selected, the listing only includes the heading and the
phrase "NORMAL END OF PROGRAM".
In addition, the options \telkey{MASS-BALANCE} and
\telkey{VALIDATION} are inhibited. Not recommended for use.'
/
NOM = 'VARIABLES A IMPRIMER'
NOM1 = 'VARIABLES TO BE PRINTED'
TYPE = STRING
INDEX = 3
TAILLE = 1
DEFAUT = ' '
DEFAUT1 = ' '
MNEMO = 'VARIMP'
CHOIX =
'U="vitesse suivant l axe des x (m/s)"';
'V="vitesse suivant l axe des y (m/s)"';
'C="celerite des ondes (m/s)"';
'H="hauteur d eau (m)"';
'S="cote de surface libre (m)"';
'B="cote du fond (m)"';
'F="nombre de Froude"';
'Q="debit scalaire du fluide (m2/s)"';
'Tn="traceur 1, etc."';
'K="energie turbulente du modele k-epsilon (J/kg)"';
'E="dissipation de l energie turbulente (W/kg)"';
'D="viscosite turbulente (m2/s)"';
'I="debit suivant l axe des x (m2/s)"';
'J="debit suivant l axe des y (m2/s)"';
'M="vitesse scalaire (m/s)"';
'X="vent suivant l axe des x (m/s)"';
'Y="vent suivant l axe des y (m/s)"';
'P="pression atmospherique (Pa)"';
'W="coefficient de frottement sur le fond"';
'A="derive en x (m)"';
'G="derive en y (m)"';
'L="nombre de Courant"';
'N="variable supplementaire N"';
'O="variable supplementaire O"';
'R="variable supplementaire R"';
'Z="variable supplementaire Z"';
'MAXZ="cote maximum (m)"';
'TMXZ="temps de la cote maximum (s)"';
'MAXV="vitesse maximum (m/s)"';
'TMXV="temps de la vitesse maximum (s)"';
'US="vitesse de frottement (m/s)"';
'G1="gradient 1, etc."';
'TAU_S="TAU_S"';
'1/R="1/R (1/m)"';
'OMEGA="OMEGA"';
'WDIST="distance au mur le plus proche (m)"';
'ZRL="niveau de reference pour Nestor (m)"'
CHOIX1 =
'U="velocity along x axis (m/s)"';
'V="velocity along y axis (m/s)"';
'C="wave celerity (m/s)"';
'H="water depth (m)"';
'S="free surface elevation (m)"';
'B="bottom elevation (m)"';
'F="Froude number"';
'Q="scalar flowrate of fluid (m2/s)"';
'Tn="tracer 1, etc."';
'K="turbulent kinetic energy in k-epsilon model (J/kg)"';
'E="dissipation of turbulent energy (W/kg)"';
'D="turbulent viscosity (m2/s)"';
'I="flowrate along x axis (m2/s)"';
'J="flowrate along y axis (m2/s)"';
'M="scalar velocity (m/s)"';
'X="wind along x axis (m/s)"';
'Y="wind along y axis (m/s)"';
'P="air pressure (Pa)"';
'W="friction coefficient"';
'A="drift along x (m)"';
'G="drift along y (m)"';
'L="Courant number"';
'N="supplementary variable N"';
'O="supplementary variable O"';
'R="supplementary variable R"';
'Z="supplementary variable Z"';
'MAXZ="maximum elevation (m)"';
'TMXZ="time of maximum elevation (s)"';
'MAXV="maximum velocity (m/s)"';
'TMXV="time of maximum velocity (s)"';
'US="friction velocity (m/s)"';
'G1="gradient 1, etc."';
'TAU_S="TAU_S"';
'1/R="1/R (1/m)"';
'OMEGA="OMEGA"';
'WDIST="distance to the closest wall (m)"';
'ZRL="reference level for Nestor (m)"'
APPARENCE =
'DYNLIST2'
RUBRIQUE =
'ENVIRONNEMENT DE CALCUL';'FICHIERS DE SORTIE';'LISTING'
RUBRIQUE1 =
'COMPUTATION ENVIRONMENT';'OUTPUT FILES';'LISTING'
COMPOSE = ','
NIVEAU = 1
AIDE =
'Nom des variables que l''utilisateur desire ecrire a l''ecran. Memes
possibilites que pour les sorties graphiques.'
AIDE1 =
'Name of the variables that the user wants printed on screen.
Same values available as graphical outputs.'
/
NOM = 'BILAN DE MASSE'
NOM1 = 'MASS-BALANCE'
TYPE = LOGICAL
INDEX = 16
TAILLE = 1
DEFAUT = NON
DEFAUT1 = NO
MNEMO = 'BILMAS'
RUBRIQUE =
'ENVIRONNEMENT DE CALCUL';'FICHIERS DE SORTIE';'LISTING'
RUBRIQUE1 =
'COMPUTATION ENVIRONMENT';'OUTPUT FILES';'LISTING'
NIVEAU = 0
AIDE =
'Determine si l''on effectue ou non le bilan de masse
sur le domaine.
Cette procedure calcule a chaque pas de temps :
\begin{itemize}
\item les flux aux entrees et sorties du domaine ;
\item le flux global a travers l''ensemble des parois du domaine
(liquides ou solides) ;
\item l''erreur relative sur la masse pour ce pas de temps.
\end{itemize}
En fin de listing, on trouve l''erreur relative sur la masse pour
l''ensemble du calcul.
Il ne s''agit que d''un calcul indicatif car il n''existe pas
d''expression compatible du debit en formulation c,u,v.'
AIDE1 =
'Determines whether a check of the mass-balance over
the domain is mader or not.
This procedures computes the following at each time step:
\begin{itemize}
\item the domain inflows and outflows,
\item the overall flow across all the boundaries,
\item the relative error in the mass for that time step.
\end{itemize}
The relative error in the mass over the whole computation can be found
at the end of the listing.'
/
NOM = 'INFORMATIONS SUR LE SOLVEUR'
NOM1 = 'INFORMATION ABOUT SOLVER'
TYPE = LOGICAL
INDEX = 15
TAILLE = 1
DEFAUT = OUI
DEFAUT1 = YES
MNEMO = 'INFOGR'
RUBRIQUE =
'ENVIRONNEMENT DE CALCUL';'FICHIERS DE SORTIE';'LISTING'
RUBRIQUE1 =
'COMPUTATION ENVIRONMENT';'OUTPUT FILES';'LISTING'
NIVEAU = 2
AIDE =
'Donne a chaque pas de temps le nombre d''iterations necessaires
a la convergence du solveur de l''etape de propagation.'
AIDE1 =
'If YES, prints the number of iterations
that have been necessary
to get the solution of the linear system.'
/
NOM = 'LISTE DE POINTS'
NOM1 = 'LIST OF POINTS'
TYPE = INTEGER
INDEX = 58
TAILLE = 2
MNEMO = 'LIST\_PTS'
APPARENCE =
'DYNLIST'
RUBRIQUE =
'ENVIRONNEMENT DE CALCUL';'FICHIERS DE SORTIE';'LISTING'
RUBRIQUE1 =
'COMPUTATION ENVIRONMENT';'OUTPUT FILES';'LISTING'
NIVEAU = 1
AIDE =
'Liste de points remarquables pour les impressions.'
AIDE1 =
'List of remarkable points for printouts.'
/
NOM = 'NOMS DES POINTS'
NOM1 = 'NAMES OF POINTS'
TYPE = STRING
INDEX = 61
TAILLE = 2
MNEMO = 'NAME\_PTS'
APPARENCE =
'DYNLIST'
RUBRIQUE =
'ENVIRONNEMENT DE CALCUL';'FICHIERS DE SORTIE';'LISTING'
RUBRIQUE1 =
'COMPUTATION ENVIRONMENT';'OUTPUT FILES';'LISTING'
NIVEAU = 1
AIDE =
'Noms des points remarquables pour les impressions.'
AIDE1 =
'Names of remarkable points for printouts.'
/
////////////////////////////////////////////////////////////////////////
/////// 1.3.4-FOURIER
////////////////////////////////////////////////////////////////////////
NOM = 'PERIODES D''ANALYSE DE FOURIER'
NOM1 = 'FOURIER ANALYSIS PERIODS'
TYPE = REAL
INDEX = 51
TAILLE = 2
MNEMO = 'PERIAF'
APPARENCE =
'DYNLIST'
RUBRIQUE =
'ENVIRONNEMENT DE CALCUL';'FICHIERS DE SORTIE';'FOURIER'
RUBRIQUE1 =
'COMPUTATION ENVIRONMENT';'OUTPUT FILES';'FOURIER'
NIVEAU = 0
AIDE =
'Liste des periodes que l''on veut analyser.'
AIDE1 =
'List of periods to be analysed.'
/
NOM = 'BORNES EN TEMPS POUR L''ANALYSE DE FOURIER'
NOM1 = 'TIME RANGE FOR FOURIER ANALYSIS'
TYPE = REAL
INDEX = 59
TAILLE = 2
DEFAUT = 0.;0.
DEFAUT1 = 0.;0.
MNEMO = 'TAFBGN,TAFEND'
RUBRIQUE =
'ENVIRONNEMENT DE CALCUL';'FICHIERS DE SORTIE';'FOURIER'
RUBRIQUE1 =
'COMPUTATION ENVIRONMENT';'OUTPUT FILES';'FOURIER'
NIVEAU = 0
AIDE =
'Pour le calcul du marnage et de la phase de la maree.'
AIDE1 =
'For computing tidal range and phase of tide.'
/
////////////////////////////////////////////////////////////////////////
/// 2-HYDRO
////////////////////////////////////////////////////////////////////////
////////////////////////////////////////////////////////////////////////
///// 2.1-BOUNDARY CONDITIONS
////////////////////////////////////////////////////////////////////////
NOM = 'COTES IMPOSEES'
NOM1 = 'PRESCRIBED ELEVATIONS'
TYPE = REAL
INDEX = 31
TAILLE = 2
MNEMO = 'COTE'
APPARENCE =
'LIST'
RUBRIQUE =
'HYDRO';'CONDITIONS AUX LIMITES';''
RUBRIQUE1 =
'HYDRO';'BOUNDARY CONDITIONS';''
NIVEAU = 1
AIDE =
'Valeurs des cotes imposees aux frontieres liquides.
Lire la partie du mode d''emploi consacree aux conditions aux limites.'
AIDE1 =
'Values of the elevations prescribed at open boundaries.
The section about boundary conditions is to be read in the manual.'
/
NOM = 'DEBITS IMPOSES'
NOM1 = 'PRESCRIBED FLOWRATES'
TYPE = REAL
INDEX = 30
TAILLE = 2
MNEMO = 'DEBIT'
APPARENCE =
'LIST'
RUBRIQUE =
'HYDRO';'CONDITIONS AUX LIMITES';''
RUBRIQUE1 =
'HYDRO';'BOUNDARY CONDITIONS';''
NIVEAU = 1
AIDE =
'Valeurs des debits imposes aux frontieres liquides.
Lire la partie du mode d''emploi consacree aux conditions aux limites.'
AIDE1 =
'Values of the flowrates prescribed at open boundaries.
The section about boundary conditions is to be read in the manual.'
/
NOM = 'VITESSES IMPOSEES'
NOM1 = 'PRESCRIBED VELOCITIES'
TYPE = REAL
INDEX = 32
TAILLE = 2
MNEMO = 'VITES'
APPARENCE =
'LIST'
RUBRIQUE =
'HYDRO';'CONDITIONS AUX LIMITES';''
RUBRIQUE1 =
'HYDRO';'BOUNDARY CONDITIONS';''
NIVEAU = 1
AIDE =
'Valeurs des vitesses imposees aux frontieres liquides.
Lire la partie du mode d''emploi consacree aux conditions aux limites.'
AIDE1 =
'Values of the magnitudes of velocity prescribed at open boundaries.
Refer to the section dealing with the boundary conditions.'
/
////////////////////////////////////////////////////////////////////////
///// 2.2-BOUNDARY CONDITIONS OTHERS
////////////////////////////////////////////////////////////////////////
NOM = 'COURBES DE TARAGE'
NOM1 = 'STAGE-DISCHARGE CURVES'
TYPE = INTEGER
INDEX = 68
TAILLE = 2
MNEMO = 'STA\_DIS\_CURVES'
CHOIX =
'0="non"';
'1="Z(Q)"';
'2="Q(Z)"'
CHOIX1 =
'0="no"';
'1="Z(Q)"';
'2="Q(Z)"'
APPARENCE =
'LIST'
RUBRIQUE =
'HYDRO';'CONDITIONS AUX LIMITES AUTRES';''
RUBRIQUE1 =
'HYDRO';'BOUNDARY CONDITIONS OTHERS';''
NIVEAU = 1
AIDE =
'Indique si une courbe de tarage doit etre utilisee pour une frontiere
(une valeur par frontiere liquide) :
\begin{itemize}
\item 0 : non ;
\item 1 : Z(Q) ;
\item 2 : Q(Z).
\end{itemize}'
AIDE1 =
'Says if a discharge-elevation curve must be used for a given boundary
(one value per open boundary):
\begin{itemize}
\item 0: no,
\item 1: Z(Q),
\item 2: Q(Z).
\end{itemize}'
/
NOM = 'FICHIER DES COURBES DE TARAGE'
NOM1 = 'STAGE-DISCHARGE CURVES FILE'
TYPE = STRING
INDEX = 73
TAILLE = 1
SUBMIT = 'T2DMAB-READ;T2DMAB;FACUL;ASC;LIT;PARAL'
DEFAUT = ''
DEFAUT1 = ''
MNEMO = 'T2D\_FILES(T2DMAB)\%NAME'
RUBRIQUE =
'HYDRO';'CONDITIONS AUX LIMITES AUTRES';''
RUBRIQUE1 =
'HYDRO';'BOUNDARY CONDITIONS OTHERS';''
NIVEAU = 1
AIDE =
'Nom du fichier contenant les courbes de tarage.'
AIDE1 =
'Name of the file containing stage-discharge curves.'
/
NOM = 'COEFFICIENT DE RELAXATION DES COURBES DE TARAGE'
NOM1 = 'STAGE-DISCHARGE CURVES RELAXATION COEFFICIENT'
TYPE = REAL
INDEX = 91
TAILLE = 1
DEFAUT = 0.02
DEFAUT1 = 0.02
MNEMO = 'RELAX\_STA\_DIS'
RUBRIQUE =
'HYDRO';'CONDITIONS AUX LIMITES AUTRES';''
RUBRIQUE1 =
'HYDRO';'BOUNDARY CONDITIONS OTHERS';''
NIVEAU = 2
AIDE =
'Coefficient de relaxation utilise pour l interpolation de la cote de
surface libre en fonction du debit a partir de la courbe de tarage
(pour \telkey{COURBES DE TARAGE} = 1).
Si mis a 1., la cote est imposee instantanement, ce qui correspond a la
courbe de tarage et peut provoquer des instabilites.
Entre 0. et 1., un delai est introduit pour l imposition de cette
courbe de tarage, ce qui constitue un compromis entre valeur cible
provenant de la courbe de tarage et de potentielles oscillations.
Voir le manuel utilisateur de \telemac{2D} pour plus de details.'
AIDE1 =
'Relaxation coefficient used to interpolate free surface elevation
with respect to flowrate from the stage-discharge curve
(for \telkey{STAGE-DISCHARGE CURVES} = 1).
If set to 1., the elevation is instantaneously prescribed corresponding
to the stage-discharge curve, but this may lead to instabilities.
Setting a value between 0. and 1., a delay is introduced to prescribe
this stage-discharge curve, that is a compromise between the goal of the
stage-discharge curve and possible instabilities.
Read the \telemac{2D} user manual for more details.'
/
NOM = 'PROFILS DE VITESSE'
NOM1 = 'VELOCITY PROFILES'
TYPE = INTEGER
INDEX = 50
TAILLE = 2
MNEMO = 'PROVEL'
CHOIX =
'1="Profil normal constant"';
'2="u et v dans le fichier conlim"';
'3="Vitesse normale donnee dans ubor dans le fichier conlim"';
'4="vitesse en racine carree de h"';
'5="vitesse en racine carree de h, variante"'
CHOIX1 =
'1="constant normal profile"';
'2="u and v given in the conlim file"';
'3="normal velocity given in ubor in the conlim file"';
'4="velocity proportional to square root of depth"';
'5="velocity proportional to square root of depth, variant"'
APPARENCE =
'DYNLIST'
RUBRIQUE =
'HYDRO';'CONDITIONS AUX LIMITES AUTRES';''
RUBRIQUE1 =
'HYDRO';'BOUNDARY CONDITIONS OTHERS';''
NIVEAU = 1
AIDE =
'Permet de specifier le type de profil horizontal de vitesse.
Les choix possibles sont :
\begin{itemize}
\item 1 : profil normal constant ;
\item 2 : $u$ et $v$ donnes dans le
\telkey{FICHIER DES CONDITIONS AUX LIMITES} ;
\item 3 : vitesse normale donnee dans \telfile{UBOR} dans le
\telkey{FICHIER DES CONDITIONS AUX LIMITES} ;
\item 4 : profil en $\sqrt{h}$ ;
\item 5 : comme 4 mais hauteur virtuelle calculee avec
la surface libre la plus basse de la frontiere.
\end{itemize}'
AIDE1 =
'Specifies the type of horizontal profile of velocities.
Possible choices are:
\begin{itemize}
\item 1: constant normal profile,
\item 2: $u$ and $v$ given in the
\telkey{BOUNDARY CONDITION FILE},
\item 3: normal velocity given in \telfile{UBOR} in the
\telkey{BOUNDARY CONDITION FILE},
\item 4: $\sqrt{h}$ profile,
\item 5: like 4 but virtual depth based on
the lowest elevation of the boundary.
\end{itemize}'
/
NOM = 'OPTION POUR LES FRONTIERES LIQUIDES'
NOM1 = 'OPTION FOR LIQUID BOUNDARIES'
TYPE = INTEGER
INDEX = 47
TAILLE = 2
MNEMO = 'FRTYPE'
CHOIX =
'1="classique"';
'2="methode de Thompson avec calcul de caracteristiques"'
CHOIX1 =
'1="classical"';
'2="Thompson method based on characteristics"'
APPARENCE =
'LIST'
RUBRIQUE =
'HYDRO';'CONDITIONS AUX LIMITES AUTRES';''
RUBRIQUE1 =
'HYDRO';'BOUNDARY CONDITIONS OTHERS';''
NIVEAU = 1
AIDE =
'On donne un entier par frontiere liquide.
Les choix possibles sont :
\begin{itemize}
\item 1 : conditions aux limites classiques ;
\item 2 : methode de Thompson avec calcul de caracteristiques.
\end{itemize}'
AIDE1 =
'One integer per liquid boundary is given.
Possible choices are:
\begin{itemize}
\item 1: classical boundary conditions,
\item 2: Thompson method based on characteristics.
\end{itemize}'
/
NOM = 'FICHIER DES FRONTIERES LIQUIDES'
NOM1 = 'LIQUID BOUNDARIES FILE'
TYPE = STRING
INDEX = 38
TAILLE = 1
SUBMIT = 'T2DIMP-READ;T2DIMP;FACUL;ASC;LIT;PARAL'
DEFAUT = ''
DEFAUT1 = ''
MNEMO = 'T2D\_FILES(T2DIMP)\%NAME'
RUBRIQUE =
'HYDRO';'CONDITIONS AUX LIMITES AUTRES';''
RUBRIQUE1 =
'HYDRO';'BOUNDARY CONDITIONS OTHERS';''
NIVEAU = 1
AIDE =
'Fichier de variations en temps des conditions aux limites.'
AIDE1 =
'File containing the variations in time of boundary conditions.'
/
NOM = 'ELEMENTS MASQUES PAR L''UTILISATEUR'
NOM1 = 'ELEMENTS MASKED BY USER'
TYPE = LOGICAL
INDEX = 26
TAILLE = 1
DEFAUT = NON
DEFAUT1 = NO
MNEMO = 'MSKUSE'
RUBRIQUE =
'HYDRO';'CONDITIONS AUX LIMITES AUTRES';''
RUBRIQUE1 =
'HYDRO';'BOUNDARY CONDITIONS OTHERS';''
NIVEAU = 0
AIDE =
'Si OUI, remplir le sous-programme \telfile{USER\_MASKOB}.'
AIDE1 =
'If YES, fill in the subroutine \telfile{USER\_MASKOB}.'
/
////////////////////////////////////////////////////////////////////////
///// 2.3-PHYSICAL PARAMETERS HYDRO
////////////////////////////////////////////////////////////////////////
////////////////////////////////////////////////////////////////////////
/////// 2.3.1-FRICTION
////////////////////////////////////////////////////////////////////////
NOM = 'NOMBRE MAXIMUM DE DOMAINES DE FROTTEMENT'
NOM1 = 'MAXIMUM NUMBER OF FRICTION DOMAINS'
TYPE = INTEGER
INDEX = 63
TAILLE = 1
DEFAUT = 10
DEFAUT1 = 10
MNEMO = 'NZONMX'
RUBRIQUE =
'HYDRO';'PARAMETRES PHYSIQUES HYDRO';'FROTTEMENT'
RUBRIQUE1 =
'HYDRO';'PHYSICAL PARAMETERS HYDRO';'FRICTION'
NIVEAU = 0
AIDE =
'Nombre maximal de zones pouvant etre definies pour le
frottement. Peut etre augmente si necessaire.'
AIDE1 =
'Maximal number of zones defined for the friction.
Could be increased if needed.'
/
NOM = 'DONNEES POUR LE FROTTEMENT'
NOM1 = 'FRICTION DATA'
TYPE = LOGICAL
INDEX = 37
TAILLE = 1
DEFAUT = NON
DEFAUT1 = NO
MNEMO = 'FRICTB'
RUBRIQUE =
'HYDRO';'PARAMETRES PHYSIQUES HYDRO';'FROTTEMENT'
RUBRIQUE1 =
'HYDRO';'PHYSICAL PARAMETERS HYDRO';'FRICTION'
NIVEAU = 2
AIDE =
'Logique qui dit si les lois de frottements sont definies par zone.'
AIDE1 =
'Logical to say if friction laws are defined by area.'
/
NOM = 'FICHIER DE DONNEES POUR LE FROTTEMENT'
NOM1 = 'FRICTION DATA FILE'
TYPE = STRING
INDEX = 63
TAILLE = 1
SUBMIT = 'T2DCOF-READ;T2DCOF;FACUL;ASC;LIT;PARAL'
DEFAUT = ''
DEFAUT1 = ''
MNEMO = 'T2D\_FILES(T2DCOF)\%NAME'
RUBRIQUE =
'HYDRO';'PARAMETRES PHYSIQUES HYDRO';'FROTTEMENT'
RUBRIQUE1 =
'HYDRO';'PHYSICAL PARAMETERS HYDRO';'FRICTION'
NIVEAU = 1
AIDE =
'Nom du fichier de donnees pour le frottement.
Voir le manuel utilisateur de \telemac{2d} pour la description.'
AIDE1 =
'Friction data file name.
See the \telemac{2d} user manual for its description.'
/
NOM = 'LOI DE FROTTEMENT SUR LE FOND'
NOM1 = 'LAW OF BOTTOM FRICTION'
TYPE = INTEGER
INDEX = 8
TAILLE = 1
MNEMO = 'KFROT'
CHOIX =
'0="PAS DE FROTTEMENT"';
'1="HAALAND"';
'2="CHEZY"';
'3="STRICKLER"';
'4="MANNING"';
'5="NIKURADSE"'
CHOIX1 =
'0="NO FRICTION"';
'1="HAALAND"';
'2="CHEZY"';
'3="STRICKLER"';
'4="MANNING"';
'5="NIKURADSE"'
RUBRIQUE =
'HYDRO';'PARAMETRES PHYSIQUES HYDRO';'FROTTEMENT'
RUBRIQUE1 =
'HYDRO';'PHYSICAL PARAMETERS HYDRO';'FRICTION'
NIVEAU = 0
AIDE =
'Selectionne le type de formulation utilisee pour le calcul
du frottement sur le fond.
Les lois possibles sont les suivantes (cf. Note de principe) :
\begin{itemize}
\item 0 : pas de frottement sur le fond ;
\item 1 : formule de Haaland ;
\item 2 : formule de Chezy ;
\item 3 : formule de Strickler ;
\item 4 : formule de Manning ;
\item 5 : formule de Nikuradse.
\end{itemize}'
AIDE1 =
'Selects the type of formulation used for the bottom friction.
The possible laws are as follows (refer to the Principle note):
\begin{itemize}
\item 0: no friction against bottom,
\item 1: Haaland''s formula,
\item 2: Chezy''s formula,
\item 3: Strickler''s formula,
\item 4: Manning''s formula,
\item 5: Nikuradse''s formula.
\end{itemize}'
/
NOM = 'COEFFICIENT DE FROTTEMENT'
NOM1 = 'FRICTION COEFFICIENT'
TYPE = REAL
INDEX = 4
TAILLE = 1
DEFAUT = 50.
DEFAUT1 = 50.
MNEMO = 'FFON'
RUBRIQUE =
'HYDRO';'PARAMETRES PHYSIQUES HYDRO';'FROTTEMENT'
RUBRIQUE1 =
'HYDRO';'PHYSICAL PARAMETERS HYDRO';'FRICTION'
NIVEAU = 0
AIDE =
'Fixe la valeur du coefficient de frottement pour la
formulation choisie.
Attention : la signification de ce chiffre varie suivant la formule
choisie :
\begin{itemize}
\item 1 : coefficient lineaire ;
\item 2 : coefficient de Chezy ;
\item 3 : coefficient de Strickler ;
\item 4 : coefficient de Manning ;
\item 5 : hauteur de rugosite de Nikuradse.
\end{itemize}'
AIDE1 =
'Sets the value of the friction coefficient for the selected
formulation. It is noteworthy that the meaning of this figure changes
according to the selected formula (Chezy, Strickler, etc.):
\begin{itemize}
\item 1: linear coefficient,
\item 2: Chezy coefficient,
\item 3: Strickler coefficient,
\item 4: Manning coefficient,
\item 5: Nikuradse grain size.
\end{itemize}'
/
NOM = 'VALEUR PAR DEFAUT DU MANNING POUR LA LOI DE COLEBROOK-WHITE'
NOM1 = 'MANNING DEFAULT VALUE FOR COLEBROOK-WHITE LAW'
TYPE = REAL
INDEX = 53
TAILLE = 1
DEFAUT = 0.02
DEFAUT1 = 0.02
MNEMO = 'NDEF'
RUBRIQUE =
'HYDRO';'PARAMETRES PHYSIQUES HYDRO';'FROTTEMENT'
RUBRIQUE1 =
'HYDRO';'PHYSICAL PARAMETERS HYDRO';'FRICTION'
NIVEAU = 0
AIDE =
'Valeur par defaut du coefficient de Manning pour la loi de frottement
de Colebrook-White (loi numero 7).'
AIDE1 =
'Manning default value for the friction law of Colebrook-White
(law number 7).'
/
NOM = 'HAUTEUR DANS LES TERMES DE FROTTEMENT'
NOM1 = 'DEPTH IN FRICTION TERMS'
TYPE = INTEGER
INDEX = 71
TAILLE = 1
DEFAUT = 1
DEFAUT1 = 1
MNEMO = 'HFROT'
CHOIX =
'1="nodale"';
'2="moyenne"'
CHOIX1 =
'1="nodal"';
'2="average"'
RUBRIQUE =
'HYDRO';'PARAMETRES PHYSIQUES HYDRO';'FROTTEMENT'
RUBRIQUE1 =
'HYDRO';'PHYSICAL PARAMETERS HYDRO';'FRICTION'
NIVEAU = 0
AIDE =
'Valeurs possibles :
\begin{itemize}
\item 1 : nodale ;
\item 2 : moyenne.
\end{itemize}'
AIDE1 =
'Possible choices:
\begin{itemize}
\item 1: nodal,
\item 2: average.
\end{itemize}'
/
NOM = 'FROTTEMENT POUR LA VEGETATION'
NOM1 = 'VEGETATION FRICTION'
TYPE = LOGICAL
INDEX = 38
TAILLE = 1
DEFAUT = NON
DEFAUT1 = NO
MNEMO = 'VEGETATION'
RUBRIQUE =
'HYDRO';'PARAMETRES PHYSIQUES HYDRO';'FROTTEMENT'
RUBRIQUE1 =
'HYDRO';'PHYSICAL PARAMETERS HYDRO';'FRICTION'
NIVEAU = 0
AIDE =
'Calcul du frottement du a la vegetation non submergee.'
AIDE1 =
'Friction calculation of the non-submerged vegetation.'
/
/
NOM = 'LOI DE FROTTEMENT SUR LES PAROIS LATERALES'
NOM1 = 'LAW OF FRICTION ON LATERAL BOUNDARIES'
TYPE = INTEGER
INDEX = 72
TAILLE = 1
DEFAUT = 0
DEFAUT1 = 0
MNEMO = 'KFROTL'
CHOIX =
'0="PAS DE FROTTEMENT"';
'1="HAALAND"';
'2="CHEZY"';
'3="STRICKLER"';
'4="MANNING"';
'5="NIKURADSE"';
'6="LOG LAW"';
'7="COLEBROOK-WHITE"'
CHOIX1 =
'0="NO FRICTION"';
'1="HAALAND"';
'2="CHEZY"';
'3="STRICKLER"';
'4="MANNING"';
'5="NIKURADSE"';
'6="LOG LAW"';
'7="COLEBROOK-WHITE"'
RUBRIQUE =
'HYDRO';'PARAMETRES PHYSIQUES HYDRO';'FROTTEMENT'
RUBRIQUE1 =
'HYDRO';'PHYSICAL PARAMETERS HYDRO';'FRICTION'
NIVEAU = 0
AIDE =
'Selectionne le type de formulation utilisee pour le calcul
du frottement sur les parois laterales.
Les lois possibles sont les suivantes (cf. Note de principe) :
\begin{itemize}
\item 0 : pas de frottement ;
\item 1 : lineaire ;
\item 2 : Chezy ;
\item 3 : Strickler ;
\item 4 : Manning ;
\item 5 : formule de Nikuradse ;
\item 6 : loi en log ;
\item 7 : Colebrook-White.
\end{itemize}'
AIDE1 =
'Selects the type of formulation used
for the friction on lateral boundaries.
The possible laws are as follows (refer to the Principle note):
\begin{itemize}
\item 0: no friction,
\item 1 : linear,
\item 2 : Chezy,
\item 3 : Strickler,
\item 4 : Manning,
\item 5: Nikuradse''s formula,
\item 6 : log law,
\item 7 : Colebrook-White.
\end{itemize}'
/
NOM = 'COEFFICIENT DE RUGOSITE DES BORDS'
NOM1 = 'ROUGHNESS COEFFICIENT OF BOUNDARIES'
TYPE = REAL
INDEX = 29
TAILLE = 1
DEFAUT = 100.
DEFAUT1 = 100.
MNEMO = 'SB'
RUBRIQUE =
'HYDRO';'PARAMETRES PHYSIQUES HYDRO';'FROTTEMENT'
RUBRIQUE1 =
'HYDRO';'PHYSICAL PARAMETERS HYDRO';'FRICTION'
NIVEAU = 0
AIDE =
'Fixe la valeur du coefficient de frottement sur les frontieres
solides avec un regime turbulent rugueux sur les bords du domaine.
Meme convention que pour le coefficient de frottement:
\begin{itemize}
\item 1 : non programme ;
\item 2 : coefficient de Chezy ;
\item 3 : coefficient de Strickler ;
\item 4 : coefficient de Manning ;
\item 5 : hauteur de rugosite de Nikuradse.
\end{itemize}'
AIDE1 =
'Sets the value of the friction coefficient of the solid
boundary with the bed roughness option. Same meaning than friction
coefficient:
\begin{itemize}
\item 1: not implemented,
\item 2: Chezy coefficient,
\item 3: Strickler coefficient,
\item 4: Manning coefficient,
\item 5: Nikuradse grain size.
\end{itemize}'
/
NOM = 'DEFINITION DE ZONES'
NOM1 = 'DEFINITION OF ZONES'
TYPE = LOGICAL
INDEX = 36
TAILLE = 1
DEFAUT = NON
DEFAUT1 = NO
MNEMO = 'DEFZON'
RUBRIQUE =
'HYDRO';'PARAMETRES PHYSIQUES HYDRO';'FROTTEMENT'
RUBRIQUE1 =
'HYDRO';'PHYSICAL PARAMETERS HYDRO';'FRICTION'
NIVEAU = 0
AIDE =
'Declenche l''appel au sous-programme \telfile{USER\_DEF\_ZONES},
pour donner un numero de zone a chaque point.'
AIDE1 =
'Triggers the call to \telfile{USER\_DEF\_ZONES} subroutine
to give a zone number to every point.'
/
NOM = 'FICHIER DES ZONES'
NOM1 = 'ZONES FILE'
TYPE = STRING
INDEX = 59
TAILLE = 1
SUBMIT = 'T2DZFI-READ;T2DZFI;FACUL;ASC;LIT;ZONES'
DEFAUT = ''
DEFAUT1 = ''
MNEMO = 'T2D\_FILES(T2DZFI)\%NAME'
RUBRIQUE =
'HYDRO';'PARAMETRES PHYSIQUES HYDRO';'FROTTEMENT'
RUBRIQUE1 =
'HYDRO';'PHYSICAL PARAMETERS HYDRO';'FRICTION'
NIVEAU = 1
AIDE =
'Fichier des zones avec sur chaque ligne :\\
numero de point  numero de zone.'
AIDE1 =
'Zones file, with on every line:\\
point number   zone number.'
/
NOM = 'MODELE NON-NEWTONIEN'
NOM1 = 'NON-NEWTONIAN MODEL'
TYPE = INTEGER
INDEX = 4
TAILLE = 1
DEFAUT = 0
DEFAUT1 = 0
MNEMO = 'NONNEWTMODEL'
RUBRIQUE =
'HYDRO';'PARAMETRES PHYSIQUES HYDRO';'NON-NEWTONIEN'
RUBRIQUE1 =
'HYDRO';'PHYSICAL PARAMETERS HYDRO';'NON-NEWTONIAN'
NIVEAU = 0
AIDE =
'Choix du modele non-newtonien :
\begin{itemize}
\item 0 : Newtonien ;
\item 1 : Bingham ;
\item 2 : Herschel-Bulkley.
[...]
\telkey{COEFFICIENT TO CALIBRATE TIDAL RANGE} is taken.'
/
NOM = 'NUMERO LOCAL DU POINT POUR CALER LA PLEINE MER'
NOM1 = 'LOCAL NUMBER OF THE POINT TO CALIBRATE HIGH WATER'
TYPE = INTEGER
INDEX = 98
TAILLE = 1
DEFAUT = 0
DEFAUT1 = 0
MNEMO = 'ICALHWB'
RUBRIQUE =
'MAREES';'CONDITIONS AUX LIMITES';''
RUBRIQUE1 =
'TIDES';'BOUNDARY CONDITIONS';''
NIVEAU = 1
AIDE =
'Numero local du point entre 1 et le nombre de points de frontiere
maritime (du \telkey{FICHIER DES CONSTANTES HARMONIQUES}) ou les
conditions aux limites de maree sont calculees avec les bases de donnees
JMJ, NEA, FES, PREVIMER (sauf les bases de type TPXO).
Les ondes de maree sont
dephasees par rapport a ce point pour debuter le calcul par une pleine
mer (en marees schematiques seulement).'
AIDE1 =
'Local number between 1 and the number of tidal boundary points (of the
\telkey{HARMONIC CONSTANTS FILE}) where the tidal boundary conditions
are computed with JMJ, NEA, FES, PREVIMER databases (except TPXO-type
databases). The tidal constituents have their phase shifted with respect
to this point to start the simulation with a high water (for schematic
tides only).'
/
NOM = 'HAUTEUR MINIMALE POUR LES CONDITIONS AUX LIMITES DE COURANTS'
NOM1 = 'MINIMUM DEPTH TO COMPUTE TIDAL VELOCITIES BOUNDARY CONDITIONS'
TYPE = REAL
INDEX = 55
TAILLE = 1
DEFAUT = 0.1
DEFAUT1 = 0.1
MNEMO = 'HMIN\_VIT\_BC'
RUBRIQUE =
'MAREES';'';''
RUBRIQUE1 =
'TIDES';'';''
NIVEAU = 1
AIDE =
'Valeur minimale de hauteur d eau utilisee pour le calcul des conditions
aux limites de courants de maree si les profondeurs sont trop petites.
Pour les solutions de marees provenant de l OSU uniquement (ex TPXO).'
AIDE1 =
'Minimum value of water depth used to compute tidal boundary conditions
for velocities if the water depths are too small.
For tidal solutions coming from OSU only (e.g. TPXO).'
/
////////////////////////////////////////////////////////////////////////
///// 10.2-PHYSICAL PARAMETERS
////////////////////////////////////////////////////////////////////////
NOM = 'FORCE GENERATRICE DE LA MAREE'
NOM1 = 'TIDE GENERATING FORCE'
TYPE = LOGICAL
INDEX = 28
TAILLE = 1
DEFAUT = NON
DEFAUT1 = NO
MNEMO = 'MAREE'
RUBRIQUE =
'MAREES';'PARAMETRES PHYSIQUES';''
RUBRIQUE1 =
'TIDES';'PHYSICAL PARAMETERS';''
NIVEAU = 0
AIDE =
'Active la prise en compte de la force generatrice de la maree.
Il faut utiliser \telkey{COORDONNEES SPHERIQUES} = OUI,
il est impossible de prendre en compte la force generatrice de la maree
en coordonnees cartesiennes.'
AIDE1 =
'The tide generating force is taken into account.
The keyword \telkey{SPHERICAL COORDINATES} has to be activated,
it is impossible to account tide generating force in cartesian
coordinates.'
/
////////////////////////////////////////////////////////////////////////
/// 11-COUPLING
////////////////////////////////////////////////////////////////////////
NOM = 'COUPLAGE AVEC'
NOM1 = 'COUPLING WITH'
TYPE = STRING
INDEX = 40
TAILLE = 1
DEFAUT = ''
DEFAUT1 = ''
MNEMO = 'COUPLING, IN BIEF'
CHOIX =
'SISYPHE';
'TOMAWAC';
'TOMAWAC2';
'WAQTEL';
'KHIONE';
'GAIA';
'DELWAQ';
''
CHOIX1 =
'SISYPHE';
'TOMAWAC';
'TOMAWAC2';
'WAQTEL';
'KHIONE';
'GAIA';
'DELWAQ';
''
APPARENCE =
'DYNLIST'
RUBRIQUE =
'COUPLAGE';'';''
RUBRIQUE1 =
'COUPLING';'';''
NIVEAU = 1
AIDE =
'Liste des codes avec lesquels on couple \telemac{2d} :
\begin{itemize}
\item \sisyphe : couplage interne avec \sisyphe ;
\item \tomawac : couplage interne avec \tomawac ;
\item \waqtel : couplage interne avec \waqtel ;
\item \khione : couplage interne avec \khione ;
\item DELWAQ : sortie de fichiers de resultats pour Delwaq ;
\item \gaia : couplage interne avec \gaia.
\end{itemize}'
AIDE1 =
'List of codes to be coupled with \telemac{2d}:
\begin{itemize}
\item \sisyphe: internal coupling with \sisyphe,
\item \tomawac: internal coupling with \tomawac,
\item \waqtel: internal coupling with \waqtel,
\item \khione: internal coupling with \khione,
\item DELWAQ: will yield results file for DELWAQ,
\item \gaia: internal coupling with \gaia.
\end{itemize}'
/
NOM = 'NOMS DES VARIABLES CLANDESTINES'
NOM1 = 'NAMES OF CLANDESTINE VARIABLES'
TYPE = STRING
INDEX = 23
TAILLE = 2
MNEMO = 'VARCLA'
RUBRIQUE =
'COUPLAGE';'';''
RUBRIQUE1 =
'COUPLING';'';''
NIVEAU = 1
AIDE =
'Noms de variables qui ne sont pas utilisees par \telemac{2d},
mais qui doivent etre conservees lors de son execution.
Ceci peut etre utilise entre autres lors du couplage de \telemac{2d}
avec un autre code.
Les variables clandestines sont alors des variables propres a l''autre
code et sont rendues dans le fichier de resultats.'
AIDE1 =
'Names of variables that are not used by \telemac{2d}, but should be
preserved when it is being run. This keyword may be used, for instance
when \telemac{2d} is coupled with another code. Thus, the clandestine
variables belong to the other code and are given back in the results
file.'
/
////////////////////////////////////////////////////////////////////////
///// 11.1-DELWAQ
////////////////////////////////////////////////////////////////////////
NOM = 'FICHIER DE COMMANDE DELWAQ'
NOM1 = 'DELWAQ STEERING FILE'
TYPE = STRING
INDEX = 71
TAILLE = 1
SUBMIT = 'T2DL11-WRITE;T2DL11;FACUL;ASC;ECR;DELWAQHYD'
DEFAUT = ''
DEFAUT1 = ''
MNEMO = 'T2D\_FILES(T2DL11)\%NAME'
RUBRIQUE =
'COUPLAGE';'DELWAQ';''
RUBRIQUE1 =
'COUPLING';'DELWAQ';''
NIVEAU = 1
AIDE =
'Fichier de commande pour le chainage avec DELWAQ.'
AIDE1 =
'Steering file for chaining with DELWAQ.'
/
NOM = 'PERIODE DE SORTIE POUR DELWAQ'
NOM1 = 'DELWAQ PRINTOUT PERIOD'
TYPE = INTEGER
INDEX = 66
TAILLE = 1
DEFAUT = 1
DEFAUT1 = 1
MNEMO = 'WAQPRD'
RUBRIQUE =
'COUPLAGE';'DELWAQ';''
RUBRIQUE1 =
'COUPLING';'DELWAQ';''
NIVEAU = 2
AIDE =
'Periode de sortie des resultats pour DELWAQ.'
AIDE1 =
'Printout period for DELWAQ files.'
/
NOM = 'FICHIER DELWAQ DES ECHANGES ENTRE NOEUDS'
NOM1 = 'EXCHANGES BETWEEN NODES DELWAQ FILE'
TYPE = STRING
INDEX = 69
TAILLE = 1
SUBMIT = 'T2DDL6-WRITE;T2DDL6;FACUL;BIN;ECR;DELWAQMET'
DEFAUT = ''
DEFAUT1 = ''
MNEMO = 'T2D\_FILES(T2DDL6)\%NAME'
RUBRIQUE =
'COUPLAGE';'DELWAQ';''
RUBRIQUE1 =
'COUPLING';'DELWAQ';''
NIVEAU = 1
AIDE =
'Fichier de resultats pour le chainage avec DELWAQ.'
AIDE1 =
'Results file for chaining with DELWAQ.'
/
NOM = 'FICHIER DELWAQ DES DISTANCES ENTRE NOEUDS'
NOM1 = 'NODES DISTANCES DELWAQ FILE'
TYPE = STRING
INDEX = 70
TAILLE = 1
SUBMIT = 'T2DDL7-WRITE;T2DDL7;FACUL;BIN;ECR;DELWAQMET'
DEFAUT = ''
DEFAUT1 = ''
MNEMO = 'T2D\_FILES(T2DDL7)\%NAME'
RUBRIQUE =
'COUPLAGE';'DELWAQ';''
RUBRIQUE1 =
'COUPLING';'DELWAQ';''
NIVEAU = 1
AIDE =
'Fichier de resultats pour le chainage avec DELWAQ.'
AIDE1 =
'Results file for chaining with DELWAQ.'
/
NOM = 'FICHIER DELWAQ DES SURFACES DU FOND'
NOM1 = 'BOTTOM SURFACES DELWAQ FILE'
TYPE = STRING
INDEX = 68
TAILLE = 1
SUBMIT = 'T2DDL5-WRITE;T2DDL5;FACUL;BIN;ECR;DELWAQMET'
DEFAUT = ''
DEFAUT1 = ''
MNEMO = 'T2D\_FILES(T2DDL5)\%NAME'
RUBRIQUE =
'COUPLAGE';'DELWAQ';''
RUBRIQUE1 =
'COUPLING';'DELWAQ';''
NIVEAU = 1
AIDE =
'Fichier de resultats pour le chainage avec DELWAQ.'
AIDE1 =
'Results file for chaining with DELWAQ.'
/
NOM = 'FICHIER DELWAQ DES VOLUMES'
NOM1 = 'VOLUMES DELWAQ FILE'
TYPE = STRING
INDEX = 64
TAILLE = 1
SUBMIT = 'T2DDL1-WRITE;T2DDL1;FACUL;BIN;ECR;DELWAQPTS'
DEFAUT = ''
DEFAUT1 = ''
MNEMO = 'T2D\_FILES(T2DSOU)\%NAME'
RUBRIQUE =
'COUPLAGE';'DELWAQ';''
RUBRIQUE1 =
'COUPLING';'DELWAQ';''
NIVEAU = 1
AIDE =
'Fichier de resultats pour le chainage avec DELWAQ.'
AIDE1 =
'Results file for chaining with DELWAQ.'
/
NOM = 'FICHIER DELWAQ DES SURFACES DE FLUX'
NOM1 = 'EXCHANGE AREAS DELWAQ FILE'
TYPE = STRING
INDEX = 65
TAILLE = 1
SUBMIT = 'T2DDL2-WRITE;T2DDL2;FACUL;BIN;ECR;DELWAQSEG'
DEFAUT = ''
DEFAUT1 = ''
MNEMO = 'T2D\_FILES(T2DDL2)\%NAME'
RUBRIQUE =
'COUPLAGE';'DELWAQ';''
RUBRIQUE1 =
'COUPLING';'DELWAQ';''
NIVEAU = 1
AIDE =
'Fichier de resultats pour le chainage avec DELWAQ.'
AIDE1 =
'Results file for chaining with DELWAQ.'
/
NOM = 'FICHIER DELWAQ DES FLUX VERTICAUX'
NOM1 = 'VERTICAL FLUXES DELWAQ FILE'
TYPE = STRING
INDEX = 66
TAILLE = 1
SUBMIT = 'T2DDL3-WRITE;T2DDL3;FACUL;BIN;ECR;DELWAQSEG'
DEFAUT = ''
DEFAUT1 = ''
MNEMO = 'T2D\_FILES(T2DDL3)\%NAME'
RUBRIQUE =
'COUPLAGE';'DELWAQ';''
RUBRIQUE1 =
'COUPLING';'DELWAQ';''
NIVEAU = 1
AIDE =
'Fichier de resultats pour le chainage avec DELWAQ.'
AIDE1 =
'Results file for chaining with DELWAQ.'
/
NOM = 'FICHIER DELWAQ DE LA VITESSE'
NOM1 = 'VELOCITY DELWAQ FILE'
TYPE = STRING
INDEX = 76
TAILLE = 1
SUBMIT = 'T2DDL9-WRITE;T2DDL9;FACUL;BIN;ECR;DELWAQPTS'
DEFAUT = ''
DEFAUT1 = ''
MNEMO = 'T2D\_FILES(T2DDL9)\%NAME'
RUBRIQUE =
'COUPLAGE';'DELWAQ';''
RUBRIQUE1 =
'COUPLING';'DELWAQ';''
NIVEAU = 1
AIDE =
'Fichier de resultats pour le chainage avec DELWAQ.'
AIDE1 =
'Results file for chaining with DELWAQ.'
/
NOM = 'FICHIER DELWAQ DE LA DIFFUSION'
NOM1 = 'DIFFUSIVITY DELWAQ FILE'
TYPE = STRING
INDEX = 77
TAILLE = 1
SUBMIT = 'T2DL10-WRITE;T2DL10;FACUL;BIN;ECR;DELWAQPTS'
DEFAUT = ''
DEFAUT1 = ''
MNEMO = 'T2D\_FILES(T2DL10)\%NAME'
RUBRIQUE =
'COUPLAGE';'DELWAQ';''
RUBRIQUE1 =
'COUPLING';'DELWAQ';''
NIVEAU = 1
AIDE =
'Fichier de resultats pour le chainage avec DELWAQ.'
AIDE1 =
'Results file for chaining with DELWAQ.'
/
NOM = 'FICHIER DELWAQ DE LA TEMPERATURE'
NOM1 = 'TEMPERATURE DELWAQ FILE'
TYPE = STRING
INDEX = 72
TAILLE = 1
SUBMIT = 'T2DDL8-WRITE;T2DDL8;FACUL;BIN;ECR;DELWAQPTS'
DEFAUT = ''
DEFAUT1 = ''
MNEMO = 'T2D\_FILES(T2DDL8)\%NAME'
RUBRIQUE =
'COUPLAGE';'DELWAQ';''
RUBRIQUE1 =
'COUPLING';'DELWAQ';''
NIVEAU = 1
AIDE =
'Fichier de resultats pour le chainage avec DELWAQ.'
AIDE1 =
'Results file for chaining with DELWAQ.'
/
NOM = 'FICHIER DELWAQ DE LA SALINITE'
NOM1 = 'SALINITY DELWAQ FILE'
TYPE = STRING
INDEX = 67
TAILLE = 1
SUBMIT = 'T2DDL4-WRITE;T2DDL4;FACUL;BIN;ECR;DELWAQPTS'
DEFAUT = ''
DEFAUT1 = ''
MNEMO = 'T2D\_FILES(T2DDL4)\%NAME'
RUBRIQUE =
'COUPLAGE';'DELWAQ';''
RUBRIQUE1 =
'COUPLING';'DELWAQ';''
NIVEAU = 1
AIDE =
'Fichier de resultats pour le chainage avec DELWAQ.'
AIDE1 =
'Results file for chaining with DELWAQ.'
/
NOM = 'VITESSE POUR DELWAQ'
NOM1 = 'VELOCITY FOR DELWAQ'
TYPE = LOGICAL
INDEX = 43
TAILLE = 1
DEFAUT = NON
DEFAUT1 = NO
MNEMO = 'VELO\_DEL'
RUBRIQUE =
'COUPLAGE';'DELWAQ';''
RUBRIQUE1 =
'COUPLING';'DELWAQ';''
NIVEAU = 1
AIDE =
'Decide de la sortie de la vitesse pour DELWAQ.'
AIDE1 =
'Triggers the output of velocity for DELWAQ.'
/
NOM = 'DIFFUSION POUR DELWAQ'
NOM1 = 'DIFFUSIVITY FOR DELWAQ'
TYPE = LOGICAL
INDEX = 44
TAILLE = 1
DEFAUT = NON
DEFAUT1 = NO
MNEMO = 'DIFF\_DEL'
RUBRIQUE =
'COUPLAGE';'DELWAQ';''
RUBRIQUE1 =
'COUPLING';'DELWAQ';''
NIVEAU = 1
AIDE =
'Decide de la sortie du coefficient de diffusion pour DELWAQ.'
AIDE1 =
'Triggers the output of diffusion for DELWAQ.'
/
NOM = 'TEMPERATURE POUR DELWAQ'
NOM1 = 'TEMPERATURE FOR DELWAQ'
TYPE = LOGICAL
INDEX = 42
TAILLE = 1
DEFAUT = NON
DEFAUT1 = NO
MNEMO = 'TEMP\_DEL'
RUBRIQUE =
'COUPLAGE';'DELWAQ';''
RUBRIQUE1 =
'COUPLING';'DELWAQ';''
NIVEAU = 1
AIDE =
'Decide de la sortie de la temperature pour DELWAQ.'
AIDE1 =
'Triggers the output of temperature for DELWAQ.'
/
NOM = 'SALINITE POUR DELWAQ'
NOM1 = 'SALINITY FOR DELWAQ'
TYPE = LOGICAL
INDEX = 41
TAILLE = 1
DEFAUT = NON
DEFAUT1 = NO
MNEMO = 'SALI\_DEL'
RUBRIQUE =
'COUPLAGE';'DELWAQ';''
RUBRIQUE1 =
'COUPLING';'DELWAQ';''
NIVEAU = 1
AIDE =
'Decide de la sortie de la salinite pour DELWAQ.'
AIDE1 =
'Triggers the output of salinity for DELWAQ.'
/
////////////////////////////////////////////////////////////////////////
///// 11.2-SISYPHE
////////////////////////////////////////////////////////////////////////
NOM = 'FICHIER DES PARAMETRES DE SISYPHE'
NOM1 = 'SISYPHE STEERING FILE'
TYPE = STRING
INDEX = 62
TAILLE = 1
DEFAUT = ''
DEFAUT1 = ''
MNEMO = 'PAS DE MNEMO'
RUBRIQUE =
'COUPLAGE';'SISYPHE';''
RUBRIQUE1 =
'COUPLING';'SISYPHE';''
NIVEAU = 1
AIDE =
'Fichier des parametres de \sisyphe en cas de couplage
interne.'
AIDE1 =
'\sisyphe parameter file in case of internal coupling.'
/
NOM = 'PERIODE DE COUPLAGE POUR SISYPHE'
NOM1 = 'COUPLING PERIOD FOR SISYPHE'
TYPE = INTEGER
INDEX = 61
TAILLE = 1
DEFAUT = 1
DEFAUT1 = 1
MNEMO = 'PERCOU'
RUBRIQUE =
'COUPLAGE';'SISYPHE';''
RUBRIQUE1 =
'COUPLING';'SISYPHE';''
NIVEAU = 1
AIDE =
'Fixe la periode de couplage avec le module \sisyphe,
en nombre de pas de temps.
Par defaut, il est couple a chaque pas de temps.'
AIDE1 =
'Sets the coupling period with the \sisyphe module, in number
of time steps. By default, it is coupled at every time step.'
/
////////////////////////////////////////////////////////////////////////
///// 11.3-GAIA
////////////////////////////////////////////////////////////////////////
NOM = 'FICHIER DES PARAMETRES DE GAIA'
NOM1 = 'GAIA STEERING FILE'
TYPE = STRING
INDEX = 58
TAILLE = 1
DEFAUT = ''
DEFAUT1 = ''
MNEMO = 'PAS DE MNEMO'
RUBRIQUE =
'COUPLAGE';'GAIA';''
RUBRIQUE1 =
'COUPLING';'GAIA';''
NIVEAU = 1
AIDE =
'Fichier des parametres de \gaia en cas de couplage
interne.'
AIDE1 =
'\gaia parameter file in case of internal coupling.'
/
////////////////////////////////////////////////////////////////////////
///// 11.4-TOMAWAC
////////////////////////////////////////////////////////////////////////
NOM = 'FICHIER DES PARAMETRES DE TOMAWAC'
NOM1 = 'TOMAWAC STEERING FILE'
TYPE = STRING
INDEX = 82
TAILLE = 1
DEFAUT = ''
DEFAUT1 = ''
MNEMO = 'PAS DE MNEMO'
RUBRIQUE =
'COUPLAGE';'TOMAWAC';''
RUBRIQUE1 =
'COUPLING';'TOMAWAC';''
NIVEAU = 1
AIDE =
'Fichier des parametres de \tomawac en cas de couplage
interne.'
AIDE1 =
'\tomawac parameter file in case of internal coupling.'
/
NOM = 'PERIODE DE COUPLAGE POUR TOMAWAC'
NOM1 = 'COUPLING PERIOD FOR TOMAWAC'
TYPE = INTEGER
INDEX = 73
TAILLE = 1
DEFAUT = 1
DEFAUT1 = 1
MNEMO = 'PERCOU\_WAC'
RUBRIQUE =
'COUPLAGE';'TOMAWAC';''
RUBRIQUE1 =
'COUPLING';'TOMAWAC';''
NIVEAU = 1
AIDE =
'Fixe la periode de couplage avec le module \tomawac,
en nombre de pas de temps.
Par defaut, il est couple a chaque pas de temps.'
AIDE1 =
'Sets the coupling period with the \tomawac module, in number
of time steps. By default, it is coupled at every time step.'
/
////////////////////////////////////////////////////////////////////////
///// 11.5-WAQTEL
////////////////////////////////////////////////////////////////////////
NOM = 'FICHIER DES PARAMETRES DE WAQTEL'
NOM1 = 'WAQTEL STEERING FILE'
TYPE = STRING
INDEX = 93
TAILLE = 1
DEFAUT = ''
DEFAUT1 = ''
MNEMO = ''
RUBRIQUE =
'COUPLAGE';'WAQTEL';''
RUBRIQUE1 =
'COUPLING';'WAQTEL';''
NIVEAU = 1
AIDE =
'Fichier des parametres physiques pour les processus de qualite d eau
(internes pas ceux de DELWAQ).'
AIDE1 =
'File for physical parameters of water quality processes
(local ones of \telemac{2d}-\waqtel not those of DELWAQ).'
/
////////////////////////////////////////////////////////////////////////
///// 11.6-KHIONE
////////////////////////////////////////////////////////////////////////
NOM = 'FICHIER DES PARAMETRES DE KHIONE'
NOM1 = 'KHIONE STEERING FILE'
TYPE = STRING
INDEX = 94
TAILLE = 1
DEFAUT = ''
DEFAUT1 = ''
MNEMO = 'T2D\_FILES(KHIONE)'
RUBRIQUE =
'COUPLAGE';'KHIONE';''
RUBRIQUE1 =
'COUPLING';'KHIONE';''
NIVEAU = 1
AIDE =
'Fichier des parametres physiques pour les processus lies aux glaces.'
AIDE1 =
'Steering file for physical parameters of ice processes.'
/
////////////////////////////////////////////////////////////////////////
///// 11.7-NESTOR INFO
////////////////////////////////////////////////////////////////////////
NOM = 'NESTOR'
NOM1 = 'NESTOR'
TYPE = LOGICAL
INDEX = 57
TAILLE = 1
DEFAUT = NON
DEFAUT1 = NO
MNEMO = 'NESTOR'
RUBRIQUE =
'COUPLAGE';'NESTOR INFO';''
RUBRIQUE1 =
'COUPLING';'NESTOR INFO';''
NIVEAU = 0
AIDE =
'Active l utilisation du module \nestor pour changer les fonds.'
AIDE1 =
'Activates the use of the \nestor module to change the bottom.'
/
NOM = 'FICHIER DES PARAMETRES DE NESTOR'
NOM1 = 'NESTOR ACTION FILE'
TYPE = STRING
INDEX = 50
TAILLE = 1
SUBMIT = 'T2NACT-READ;T2NACT;FACUL;ASC;LIT;PARAL'
DEFAUT = ''
DEFAUT1 = ''
MNEMO = 'T2D\_FILES(T2NACT)\%NAME'
RUBRIQUE =
'COUPLAGE';'NESTOR INFO';''
RUBRIQUE1 =
'COUPLING';'NESTOR INFO';''
COMPORT =
'DISPLAY %NESTOR% = OUI'
NIVEAU = 0
AIDE =
'Nom du fichier des parametres de \nestor.'
AIDE1 =
'Name of the \nestor steering file.'
/
NOM = 'FICHIER DE POLYGONES DE NESTOR'
NOM1 = 'NESTOR POLYGON FILE'
TYPE = STRING
INDEX = 51
TAILLE = 1
SUBMIT = 'T2NPOL-READ;T2NPOL;FACUL;ASC;LIT;PARAL'
DEFAUT = ''
DEFAUT1 = ''
MNEMO = 'T2D\_FILES(T2NPOL)\%NAME'
RUBRIQUE =
'COUPLAGE';'NESTOR INFO';''
RUBRIQUE1 =
'COUPLING';'NESTOR INFO';''
NIVEAU = 0
AIDE =
'Nom du fichier de polygones de \nestor indiquant la localisation.'
AIDE1 =
'Name of the \nestor polygon file which indicates the location.'
/
NOM = 'FICHIER DE SURFACE REFERENCE DE NESTOR'
NOM1 = 'NESTOR SURFACE REFERENCE FILE'
TYPE = STRING
INDEX = 52
TAILLE = 1
SUBMIT = 'T2NREF-READ;T2NREF;FACUL;ASC;LIT;PARAL'
DEFAUT = ''
DEFAUT1 = ''
MNEMO = 'T2D\_FILES(T2NREF)\%NAME'
APPARENCE =
'LISTE IS FICHIER'
RUBRIQUE =
'COUPLAGE';'NESTOR INFO';''
RUBRIQUE1 =
'COUPLING';'NESTOR INFO';''
COMPORT =
'DISPLAY %NESTOR% = OUI'
NIVEAU = 0
AIDE =
'Nom du fichier de \nestor qui contient la surface de reference.'
AIDE1 =
'Name of the \nestor file which contains the reference water surface.'
/
NOM = 'FICHIER DE REPRISE DE NESTOR'
NOM1 = 'NESTOR RESTART FILE'
TYPE = STRING
INDEX = 53
TAILLE = 1
SUBMIT = 'T2NRST-READ;T2NRST;FACUL;ASC;LIT;PARAL'
DEFAUT = ''
DEFAUT1 = ''
MNEMO = 'T2D\_FILES(T2NRST)\%NAME'
RUBRIQUE =
'COUPLAGE';'NESTOR INFO';''
RUBRIQUE1 =
'COUPLING';'NESTOR INFO';''
COMPORT =
'DISPLAY %NESTOR% = OUI'
NIVEAU = 1
AIDE =
'Nom du fichier de reprise de \nestor.'
AIDE1 =
'Name of the \nestor restart file.'
/
////////////////////////////////////////////////////////////////////////
/// 12-INTERNAL
////////////////////////////////////////////////////////////////////////
NOM = 'LANGUE'
NOM1 = 'LANGUAGE'
TYPE = INTEGER
INDEX = 55
TAILLE = 1
DEFAUT = 1
DEFAUT1 = 2
MNEMO = 'LNG'
CHOIX =
'1="FRANCAIS"';
'2="ANGLAIS"'
CHOIX1 =
'1="FRANCAIS"';
'2="ANGLAIS"'
RUBRIQUE =
'INTERNE';'';''
RUBRIQUE1 =
'INTERNAL';'';''
NIVEAU = 1
AIDE =
'1 : FRANCAIS   2 : ANGLAIS'
AIDE1 =
'1: FRENCH   2: ENGLISH'
/
NOM = 'FICHIER DES PARAMETRES'
NOM1 = 'STEERING FILE'
TYPE = STRING
INDEX = 8
TAILLE = 1
SUBMIT = 'INUTILE;T2DCAS;OBLIG;ASC;LIT;CAS'
DEFAUT = ''
DEFAUT1 = ''
MNEMO = 'NOMCAS'
RUBRIQUE =
'INTERNE';'';''
RUBRIQUE1 =
'INTERNAL';'';''
NIVEAU = 1
AIDE =
'Nom du fichier contenant les parametres du calcul a realiser.'
AIDE1 =
'Name of the file containing the parameters of the computation
Written by the user.'
/
NOM = 'DICTIONNAIRE'
NOM1 = 'DICTIONARY'
TYPE = STRING
INDEX = 100
TAILLE = 1
SUBMIT = 'INUTILE;T2DDICO;OBLIG;ASC;LIT;DICO'
DEFAUT = 'telemac2d.dico'
DEFAUT1 = 'telemac2d.dico'
MNEMO = ''
RUBRIQUE =
'INTERNE';'';''
RUBRIQUE1 =
'INTERNAL';'';''
NIVEAU = 100
AIDE =
'Dictionnaire des mots cles.'
AIDE1 =
'Key word dictionary.'
/
NOM = 'PARTITIONNEUR'
NOM1 = 'PARTITIONING TOOL'
TYPE = STRING
INDEX = 101
TAILLE = 1
DEFAUT = 'METIS'
DEFAUT1 = 'METIS'
MNEMO = ''
CHOIX =
'METIS';
'SCOTCH';
'PARMETIS';
'PTSCOTCH'
CHOIX1 =
'METIS';
'SCOTCH';
'PARMETIS';
'PTSCOTCH'
RUBRIQUE =
'INTERNE';'';''
RUBRIQUE1 =
'INTERNAL';'';''
NIVEAU = 1
AIDE =
'Choix du partitionneur :
\begin{itemize}
\item 1 : METIS ;
\item 2 : SCOTCH ;
\item 3 : PARMETIS ;
\item 4 : PTSCOTCH.
\end{itemize}'
AIDE1 =
'Partitioning tool selection:
\begin{itemize}
\item 1: METIS,
\item 2: SCOTCH,
\item 3: PARMETIS,
\item 4: PTSCOTCH.
\end{itemize}'
/
NOM = 'CONCATENATION SORTIE PARTEL'
NOM1 = 'CONCATENATE PARTEL OUTPUT'
TYPE = LOGICAL
INDEX = 58
TAILLE = 1
DEFAUT = NON
DEFAUT1 = NO
MNEMO = 'CONCAT\_PARTEL'
RUBRIQUE =
'INTERNE';'';''
RUBRIQUE1 =
'INTERNAL';'';''
NIVEAU = 0
AIDE =
'Avec cette option partel ne generera non plus un fichier (GEO/CLI/PAR)
par processeur mais une concatenation de ceux-ci, ainsi qu''un fichier
d''index associe. Ainsi plutot que d''avoir 3P fichiers, il n''y en a
plus que 6.'
AIDE1 =
'With this option partel no more generates a file (GEO/CLI/PAR) per
process but a single concatenate file of them, associated to an index
file. Then instead of having partel generating 3P files, it only
generates 6 files.'
/
